data_image0
_cell_length_a       10.41
_cell_length_b       17.524
_cell_length_c       18.478
_cell_angle_alpha    71.76
_cell_angle_beta     88.85
_cell_angle_gamma    88.39

_symmetry_space_group_name_H-M    "P 1"
_symmetry_int_tables_number       1

loop_
  _symmetry_equiv_pos_as_xyz
  'x, y, z'

loop_
  _atom_site_label
  _atom_site_occupancy
  _atom_site_fract_x
  _atom_site_fract_y
  _atom_site_fract_z
  _atom_site_thermal_displace_type
  _atom_site_B_iso_or_equiv
  _atom_site_type_symbol
  C1       1.0000 0.45338  0.52336  0.60570  Biso   1.000  C
  N1       1.0000 0.31589  0.50200  0.61043  Biso   1.000  N
  C2       1.0000 0.48166  0.58921  0.63869  Biso   1.000  C
  H1       1.0000 0.48071  0.53998  0.55270  Biso   1.000  H
  H2       1.0000 0.50395  0.47590  0.63243  Biso   1.000  H
  C3       1.0000 0.30455  0.42408  0.59829  Biso   1.000  C
  C4       1.0000 0.24476  0.56466  0.55282  Biso   1.000  C
  N2       1.0000 0.46773  0.56326  0.72172  Biso   1.000  N
  H3       1.0000 0.56863  0.60702  0.62468  Biso   1.000  H
  H4       1.0000 0.42352  0.63447  0.61693  Biso   1.000  H
  C5       1.0000 0.34681  0.35350  0.66502  Biso   1.000  C
  H5       1.0000 0.35570  0.42399  0.55390  Biso   1.000  H
  H6       1.0000 0.21563  0.41728  0.58741  Biso   1.000  H
  C6       1.0000 0.10156  0.56261  0.56302  Biso   1.000  C
  H7       1.0000 0.26588  0.55990  0.50301  Biso   1.000  H
  H8       1.0000 0.27351  0.61660  0.55339  Biso   1.000  H
  C7       1.0000 0.38369  0.59149  0.75922  Biso   1.000  C
  C8       1.0000 0.56585  0.51517  0.77341  Biso   1.000  C
  N3       1.0000 0.26533  0.34242  0.73169  Biso   1.000  N
  H9       1.0000 0.34665  0.30506  0.65020  Biso   1.000  H
  H10      1.0000 0.43426  0.36141  0.67790  Biso   1.000  H
  N4       1.0000 0.05633  0.58407  0.62849  Biso   1.000  N
  H11      1.0000 0.06244  0.59907  0.51771  Biso   1.000  H
  H12      1.0000 0.07327  0.50890  0.56803  Biso   1.000  H
  N5       1.0000 0.39907  0.56689  0.83193  Biso   1.000  N
  H13      1.0000 0.31744  0.62679  0.73580  Biso   1.000  H
  H14      1.0000 0.64802  0.54139  0.76469  Biso   1.000  H
  H15      1.0000 0.57615  0.46209  0.76799  Biso   1.000  H
  C9       1.0000 0.50919  0.51120  0.85108  Biso   1.000  C
  C10      1.0000 0.29214  0.35970  0.79198  Biso   1.000  C
  C11      1.0000 0.14534  0.30061  0.74161  Biso   1.000  C
  C12      1.0000 0.05083  0.53669  0.69722  Biso   1.000  C
  C13      1.0000 0.97573  0.65691  0.62348  Biso   1.000  C
  C14      1.0000 0.31847  0.58949  0.88840  Biso   1.000  C
  H16      1.0000 0.48241  0.45727  0.87889  Biso   1.000  H
  H17      1.0000 0.57061  0.52830  0.88128  Biso   1.000  H
  N6       1.0000 0.20415  0.33998  0.84521  Biso   1.000  N
  H18      1.0000 0.36793  0.38422  0.79728  Biso   1.000  H
  H19      1.0000 0.15800  0.24677  0.73819  Biso   1.000  H
  H20      1.0000 0.08325  0.32972  0.70389  Biso   1.000  H
  C15      1.0000 0.10225  0.29840  0.82139  Biso   1.000  C
  H21      1.0000 0.08715  0.48511  0.71169  Biso   1.000  H
  N7       1.0000 0.99028  0.56629  0.74509  Biso   1.000  N
  H22      1.0000 0.02276  0.70572  0.60029  Biso   1.000  H
  H23      1.0000 0.89810  0.65837  0.59482  Biso   1.000  H
  C16      1.0000 0.94534  0.64611  0.70611  Biso   1.000  C
  C17      1.0000 0.24439  0.51826  0.93770  Biso   1.000  C
  H24      1.0000 0.25859  0.63217  0.86231  Biso   1.000  H
  H25      1.0000 0.37220  0.60956  0.92032  Biso   1.000  H
  C18      1.0000 0.21560  0.34501  0.92140  Biso   1.000  C
  H26      1.0000 0.01990  0.32610  0.82048  Biso   1.000  H
  H27      1.0000 0.09558  0.24357  0.85490  Biso   1.000  H
  C19      1.0000 0.95132  0.52329  0.82270  Biso   1.000  C
  H28      1.0000 0.98948  0.68508  0.72332  Biso   1.000  H
  H29      1.0000 0.85363  0.65170  0.71409  Biso   1.000  H
  N8       1.0000 0.15236  0.48761  0.89490  Biso   1.000  N
  H30      1.0000 0.30480  0.47540  0.96260  Biso   1.000  H
  H31      1.0000 0.19824  0.53409  0.97713  Biso   1.000  H
  C20      1.0000 0.12240  0.40458  0.93741  Biso   1.000  C
  H32      1.0000 0.30235  0.36007  0.92818  Biso   1.000  H
  H33      1.0000 0.20123  0.29237  0.95793  Biso   1.000  H
  C21      1.0000 0.03681  0.53768  0.88208  Biso   1.000  C
  H34      1.0000 0.95178  0.46621  0.82908  Biso   1.000  H
  H35      1.0000 0.86390  0.53956  0.83102  Biso   1.000  H
  H36      1.0000 0.03664  0.39351  0.92442  Biso   1.000  H
  H37      1.0000 0.12261  0.39799  0.99149  Biso   1.000  H
  H38      1.0000 0.06048  0.59369  0.86578  Biso   1.000  H
  H39      1.0000 0.98902  0.52721  0.92961  Biso   1.000  H
  C22      1.0000 0.77303  0.21228  0.62359  Biso   1.000  C
  N9       1.0000 0.66127  0.16639  0.65870  Biso   1.000  N
  C23      1.0000 0.85776  0.20800  0.69112  Biso   1.000  C
  H40      1.0000 0.81651  0.18846  0.58883  Biso   1.000  H
  H41      1.0000 0.74873  0.26746  0.59613  Biso   1.000  H
  C24      1.0000 0.55194  0.15277  0.61761  Biso   1.000  C
  C25      1.0000 0.67433  0.14021  0.73118  Biso   1.000  C
  N10      1.0000 0.78064  0.15902  0.75569  Biso   1.000  N
  H42      1.0000 0.87163  0.26099  0.69522  Biso   1.000  H
  H43      1.0000 0.94009  0.18206  0.68753  Biso   1.000  H
  C26      1.0000 0.58063  0.09371  0.57561  Biso   1.000  C
  H44      1.0000 0.48166  0.13330  0.65328  Biso   1.000  H
  H45      1.0000 0.52413  0.20346  0.58142  Biso   1.000  H
  H46      1.0000 0.61206  0.11007  0.76372  Biso   1.000  H
  C27      1.0000 0.81527  0.14757  0.83421  Biso   1.000  C
  N11      1.0000 0.60998  0.01199  0.62610  Biso   1.000  N
  H47      1.0000 0.65321  0.11222  0.54148  Biso   1.000  H
  H48      1.0000 0.50728  0.09191  0.54472  Biso   1.000  H
  H49      1.0000 0.83240  0.19941  0.84008  Biso   1.000  H
  H50      1.0000 0.74321  0.12490  0.86732  Biso   1.000  H
  C28      1.0000 0.93101  0.09331  0.85820  Biso   1.000  C
  C29      1.0000 0.48789  0.97429  0.65733  Biso   1.000  C
  C30      1.0000 0.67493  0.96649  0.58108  Biso   1.000  C
  N12      1.0000 0.90836  0.00958  0.86350  Biso   1.000  N
  H51      1.0000 0.95866  0.09519  0.90738  Biso   1.000  H
  H52      1.0000 0.00033  0.11331  0.82179  Biso   1.000  H
  H53      1.0000 0.43553  0.01238  0.67408  Biso   1.000  H
  H54      1.0000 0.44204  0.96247  0.61698  Biso   1.000  H
  C31      1.0000 0.50406  0.89718  0.72360  Biso   1.000  C
  H55      1.0000 0.66336  0.90962  0.60638  Biso   1.000  H
  H56      1.0000 0.63464  0.98017  0.53162  Biso   1.000  H
  C32      1.0000 0.81629  0.98208  0.56963  Biso   1.000  C
  C33      1.0000 0.83886  0.96928  0.93451  Biso   1.000  C
  C34      1.0000 0.03136  0.96760  0.86151  Biso   1.000  C
  N13      1.0000 0.53902  0.90882  0.79478  Biso   1.000  N
  H57      1.0000 0.56963  0.86359  0.70998  Biso   1.000  H
  H58      1.0000 0.42416  0.86846  0.73141  Biso   1.000  H
  H59      1.0000 0.82824  0.03958  0.54883  Biso   1.000  H
  N14      1.0000 0.88974  0.95160  0.63818  Biso   1.000  N
  H60      1.0000 0.84951  0.95776  0.53242  Biso   1.000  H
  C35      1.0000 0.77697  0.89297  0.93428  Biso   1.000  C
  H61      1.0000 0.77304  0.00579  0.94322  Biso   1.000  H
  H62      1.0000 0.89836  0.95710  0.97662  Biso   1.000  H
  C36      1.0000 0.08662  0.98371  0.78270  Biso   1.000  C
  H63      1.0000 0.09241  0.98381  0.89251  Biso   1.000  H
  H64      1.0000 0.01955  0.91019  0.88379  Biso   1.000  H
  C37      1.0000 0.65350  0.91079  0.81979  Biso   1.000  C
  C38      1.0000 0.44955  0.89600  0.85843  Biso   1.000  C
  C39      1.0000 0.94615  0.99220  0.67539  Biso   1.000  C
  C40      1.0000 0.92437  0.86696  0.67363  Biso   1.000  C
  N15      1.0000 0.66062  0.90610  0.89029  Biso   1.000  N
  H65      1.0000 0.75719  0.86147  0.98653  Biso   1.000  H
  H66      1.0000 0.83785  0.86202  0.91388  Biso   1.000  H
  N16      1.0000 0.01081  0.95199  0.73380  Biso   1.000  N
  H67      1.0000 0.17262  0.96020  0.78629  Biso   1.000  H
  H68      1.0000 0.09367  0.04128  0.75922  Biso   1.000  H
  H69      1.0000 0.72595  0.91540  0.78868  Biso   1.000  H
  C41      1.0000 0.53255  0.89266  0.92499  Biso   1.000  C
  H70      1.0000 0.38672  0.93978  0.84908  Biso   1.000  H
  H71      1.0000 0.40482  0.84601  0.86721  Biso   1.000  H
  H72      1.0000 0.94019  0.04797  0.66052  Biso   1.000  H
  H73      1.0000 0.84824  0.83517  0.69021  Biso   1.000  H
  H74      1.0000 0.97339  0.84611  0.63852  Biso   1.000  H
  C42      1.0000 0.00545  0.86656  0.74150  Biso   1.000  C
  H75      1.0000 0.52833  0.84069  0.96402  Biso   1.000  H
  H76      1.0000 0.50759  0.93441  0.94710  Biso   1.000  H
  H77      1.0000 0.96482  0.83658  0.78931  Biso   1.000  H
  H78      1.0000 0.09068  0.84379  0.73853  Biso   1.000  H
  C43      1.0000 0.22676  0.78770  0.37639  Biso   1.000  C
  C44      1.0000 0.14212  0.79196  0.30892  Biso   1.000  C
  N17      1.0000 0.33862  0.83358  0.34129  Biso   1.000  N
  H79      1.0000 0.18328  0.81150  0.41121  Biso   1.000  H
  H80      1.0000 0.25106  0.73250  0.40391  Biso   1.000  H
  N18      1.0000 0.21924  0.84101  0.24430  Biso   1.000  N
  H81      1.0000 0.12825  0.73897  0.30482  Biso   1.000  H
  H82      1.0000 0.05969  0.81789  0.31251  Biso   1.000  H
  C45      1.0000 0.32555  0.85982  0.26880  Biso   1.000  C
  C46      1.0000 0.44794  0.84719  0.38243  Biso   1.000  C
  C47      1.0000 0.18461  0.85238  0.16583  Biso   1.000  C
  H83      1.0000 0.38782  0.88988  0.23632  Biso   1.000  H
  C48      1.0000 0.41915  0.90630  0.42443  Biso   1.000  C
  H84      1.0000 0.51822  0.86668  0.34670  Biso   1.000  H
  H85      1.0000 0.47566  0.79650  0.41862  Biso   1.000  H
  H86      1.0000 0.16739  0.80062  0.15990  Biso   1.000  H
  H87      1.0000 0.25657  0.87512  0.13272  Biso   1.000  H
  C49      1.0000 0.06878  0.90672  0.14178  Biso   1.000  C
  N19      1.0000 0.38990  0.98799  0.37388  Biso   1.000  N
  H88      1.0000 0.34657  0.88782  0.45851  Biso   1.000  H
  H89      1.0000 0.49261  0.90811  0.45531  Biso   1.000  H
  N20      1.0000 0.09152  0.99039  0.13648  Biso   1.000  N
  H90      1.0000 0.04123  0.90478  0.09260  Biso   1.000  H
  H91      1.0000 0.99955  0.88673  0.17819  Biso   1.000  H
  C50      1.0000 0.51200  0.02567  0.34271  Biso   1.000  C
  C51      1.0000 0.32486  0.03349  0.41890  Biso   1.000  C
  C52      1.0000 0.96852  0.03243  0.13847  Biso   1.000  C
  C53      1.0000 0.16102  0.03070  0.06548  Biso   1.000  C
  H92      1.0000 0.56425  0.98760  0.32590  Biso   1.000  H
  H93      1.0000 0.55775  0.03750  0.38300  Biso   1.000  H
  C54      1.0000 0.49582  0.10280  0.27638  Biso   1.000  C
  H94      1.0000 0.33652  0.09041  0.39360  Biso   1.000  H
  H95      1.0000 0.36515  0.01979  0.46842  Biso   1.000  H
  C55      1.0000 0.18360  0.01787  0.43041  Biso   1.000  C
  C56      1.0000 0.91316  0.01633  0.21729  Biso   1.000  C
  H96      1.0000 0.90738  0.01622  0.10747  Biso   1.000  H
  H97      1.0000 0.98034  0.08979  0.11619  Biso   1.000  H
  H98      1.0000 0.22684  0.99422  0.05681  Biso   1.000  H
  C57      1.0000 0.22292  0.10701  0.06570  Biso   1.000  C
  H99      1.0000 0.10152  0.04291  0.02342  Biso   1.000  H
  N21      1.0000 0.46077  0.09121  0.20520  Biso   1.000  N
  H100     1.0000 0.43016  0.13638  0.29000  Biso   1.000  H
  H101     1.0000 0.57572  0.13150  0.26863  Biso   1.000  H
  H102     1.0000 0.17155  0.96038  0.45121  Biso   1.000  H
  N22      1.0000 0.11005  0.04837  0.36180  Biso   1.000  N
  H103     1.0000 0.15038  0.04220  0.46762  Biso   1.000  H
  H104     1.0000 0.90621  0.95867  0.24082  Biso   1.000  H
  N23      1.0000 0.98908  0.04799  0.26618  Biso   1.000  N
  H105     1.0000 0.82717  0.03977  0.21370  Biso   1.000  H
  N24      1.0000 0.33917  0.09387  0.10970  Biso   1.000  N
  H106     1.0000 0.24269  0.13849  0.01351  Biso   1.000  H
  H107     1.0000 0.16203  0.13802  0.08611  Biso   1.000  H
  C58      1.0000 0.34639  0.08918  0.18019  Biso   1.000  C
  C59      1.0000 0.55033  0.10402  0.14161  Biso   1.000  C
  C60      1.0000 0.05364  0.00778  0.32459  Biso   1.000  C
  C61      1.0000 0.07551  0.13300  0.32641  Biso   1.000  C
  C62      1.0000 0.99434  0.13342  0.25849  Biso   1.000  C
  C63      1.0000 0.46734  0.10731  0.07499  Biso   1.000  C
  H108     1.0000 0.27393  0.08458  0.21130  Biso   1.000  H
  H109     1.0000 0.61307  0.06019  0.15090  Biso   1.000  H
  H110     1.0000 0.59496  0.15403  0.13278  Biso   1.000  H
  H111     1.0000 0.05969  0.95199  0.33952  Biso   1.000  H
  H112     1.0000 0.15155  0.16480  0.30977  Biso   1.000  H
  H113     1.0000 0.02649  0.15391  0.36152  Biso   1.000  H
  H114     1.0000 0.90920  0.15617  0.26151  Biso   1.000  H
  H115     1.0000 0.03507  0.16339  0.21068  Biso   1.000  H
  H116     1.0000 0.47146  0.15927  0.03601  Biso   1.000  H
  H117     1.0000 0.49229  0.06562  0.05288  Biso   1.000  H
