data_image0
_cell_length_a       12.751
_cell_length_b       15.13
_cell_length_c       19.335
_cell_angle_alpha    91.3
_cell_angle_beta     92.89
_cell_angle_gamma    92.91

_symmetry_space_group_name_H-M    "P 1"
_symmetry_int_tables_number       1

loop_
  _symmetry_equiv_pos_as_xyz
  'x, y, z'

loop_
  _atom_site_label
  _atom_site_occupancy
  _atom_site_fract_x
  _atom_site_fract_y
  _atom_site_fract_z
  _atom_site_thermal_displace_type
  _atom_site_B_iso_or_equiv
  _atom_site_type_symbol
  O1       1.0000 0.43996  0.22470  0.85593  Biso   1.000  O
  C1       1.0000 0.36938  0.16929  0.83904  Biso   1.000  C
  N1       1.0000 0.37511  0.10365  0.79024  Biso   1.000  N
  N2       1.0000 0.37510  0.10365  0.79019  Biso   1.000  N
  O2       1.0000 0.43997  0.22477  0.85593  Biso   1.000  O
  N3       1.0000 0.27135  0.16526  0.86375  Biso   1.000  N
  O3       1.0000 0.43996  0.22477  0.85587  Biso   1.000  O
  N4       1.0000 0.27134  0.16526  0.86370  Biso   1.000  N
  N5       1.0000 0.27134  0.16520  0.86375  Biso   1.000  N
  O4       1.0000 0.43996  0.22470  0.85587  Biso   1.000  O
  N6       1.0000 0.27142  0.16519  0.86370  Biso   1.000  N
  C2       1.0000 0.46680  0.09882  0.74911  Biso   1.000  C
  C3       1.0000 0.46688  0.09882  0.74911  Biso   1.000  C
  C4       1.0000 0.27552  0.05242  0.77750  Biso   1.000  C
  C5       1.0000 0.20237  0.09567  0.82982  Biso   1.000  C
  C6       1.0000 0.20237  0.09560  0.82982  Biso   1.000  C
  C7       1.0000 0.23853  0.23460  0.91022  Biso   1.000  C
  N7       1.0000 0.53517  0.02782  0.76791  Biso   1.000  N
  N8       1.0000 0.53509  0.02782  0.76791  Biso   1.000  N
  H1       1.0000 0.50785  0.15543  0.75414  Biso   1.000  H
  H2       1.0000 0.44344  0.09075  0.70021  Biso   1.000  H
  N9       1.0000 0.28024  0.96149  0.80205  Biso   1.000  N
  N10      1.0000 0.28015  0.96148  0.80200  Biso   1.000  N
  N11      1.0000 0.28023  0.96148  0.80200  Biso   1.000  N
  C8       1.0000 0.23203  0.05616  0.70311  Biso   1.000  C
  C9       1.0000 0.23210  0.05610  0.70311  Biso   1.000  C
  N12      1.0000 0.17614  0.02376  0.87572  Biso   1.000  N
  C10      1.0000 0.10525  0.13254  0.79325  Biso   1.000  C
  C11      1.0000 0.10525  0.13254  0.79319  Biso   1.000  C
  N13      1.0000 0.17621  0.02369  0.87572  Biso   1.000  N
  C12      1.0000 0.10533  0.13254  0.79319  Biso   1.000  C
  N14      1.0000 0.23674  0.21044  0.98175  Biso   1.000  N
  H3       1.0000 0.16782  0.25097  0.89462  Biso   1.000  H
  N15      1.0000 0.23682  0.21044  0.98175  Biso   1.000  N
  H4       1.0000 0.28621  0.28703  0.90674  Biso   1.000  H
  H5       1.0000 0.16790  0.25090  0.89462  Biso   1.000  H
  H6       1.0000 0.28620  0.28703  0.90669  Biso   1.000  H
  C13      1.0000 0.51934  0.93708  0.74113  Biso   1.000  C
  C14      1.0000 0.51927  0.93708  0.74113  Biso   1.000  C
  C15      1.0000 0.63330  0.04577  0.79713  Biso   1.000  C
  C16      1.0000 0.63338  0.04577  0.79713  Biso   1.000  C
  C17      1.0000 0.63338  0.04570  0.79713  Biso   1.000  C
  C18      1.0000 0.32671  0.89038  0.76434  Biso   1.000  C
  C19      1.0000 0.21748  0.94509  0.85582  Biso   1.000  C
  H7       1.0000 0.16879  0.01672  0.69689  Biso   1.000  H
  H8       1.0000 0.16879  0.01672  0.69695  Biso   1.000  H
  H9       1.0000 0.28429  0.03491  0.67203  Biso   1.000  H
  C20      1.0000 0.20496  0.14990  0.68353  Biso   1.000  C
  C21      1.0000 0.10107  0.02860  0.92912  Biso   1.000  C
  C22      1.0000 0.10115  0.02860  0.92912  Biso   1.000  C
  C23      1.0000 0.13767  0.19369  0.73611  Biso   1.000  C
  H10      1.0000 0.06595  0.16513  0.82692  Biso   1.000  H
  H11      1.0000 0.05915  0.08352  0.77351  Biso   1.000  H
  H12      1.0000 0.05923  0.08352  0.77351  Biso   1.000  H
  H13      1.0000 0.06603  0.16513  0.82692  Biso   1.000  H
  C24      1.0000 0.31119  0.24111  0.02967  Biso   1.000  C
  C25      1.0000 0.14882  0.16213  0.01258  Biso   1.000  C
  C26      1.0000 0.31111  0.24104  0.02967  Biso   1.000  C
  C27      1.0000 0.14874  0.16213  0.01258  Biso   1.000  C
  N16      1.0000 0.43962  0.88682  0.77703  Biso   1.000  N
  C28      1.0000 0.62417  0.89428  0.76631  Biso   1.000  C
  C29      1.0000 0.50300  0.93348  0.66250  Biso   1.000  C
  N17      1.0000 0.43961  0.88675  0.77703  Biso   1.000  N
  C30      1.0000 0.62418  0.89428  0.76636  Biso   1.000  C
  N18      1.0000 0.68554  0.96894  0.79926  Biso   1.000  N
  N19      1.0000 0.68546  0.96894  0.79920  Biso   1.000  N
  N20      1.0000 0.68546  0.96887  0.79926  Biso   1.000  N
  N21      1.0000 0.68553  0.96887  0.79920  Biso   1.000  N
  O5       1.0000 0.66960  0.11957  0.81573  Biso   1.000  O
  O6       1.0000 0.66967  0.11950  0.81573  Biso   1.000  O
  H14      1.0000 0.29307  0.83388  0.77703  Biso   1.000  H
  H15      1.0000 0.31174  0.89757  0.71461  Biso   1.000  H
  H16      1.0000 0.29299  0.83388  0.77703  Biso   1.000  H
  H17      1.0000 0.31166  0.89757  0.71461  Biso   1.000  H
  O7       1.0000 0.19778  0.87364  0.88105  Biso   1.000  O
  O8       1.0000 0.19769  0.87364  0.88100  Biso   1.000  O
  O9       1.0000 0.19769  0.87357  0.88105  Biso   1.000  O
  O10      1.0000 0.19777  0.87357  0.88100  Biso   1.000  O
  H18      1.0000 0.16715  0.14764  0.63800  Biso   1.000  H
  H19      1.0000 0.27029  0.18611  0.67959  Biso   1.000  H
  H20      1.0000 0.04261  0.06305  0.91182  Biso   1.000  H
  H21      1.0000 0.07251  0.96870  0.93720  Biso   1.000  H
  H22      1.0000 0.07252  0.96870  0.93726  Biso   1.000  H
  N22      1.0000 0.14166  0.06764  0.99434  Biso   1.000  N
  H23      1.0000 0.04253  0.06305  0.91182  Biso   1.000  H
  N23      1.0000 0.14174  0.06764  0.99434  Biso   1.000  N
  H24      1.0000 0.17706  0.24572  0.75693  Biso   1.000  H
  H25      1.0000 0.07423  0.21415  0.71192  Biso   1.000  H
  H26      1.0000 0.07430  0.21409  0.71192  Biso   1.000  H
  O11      1.0000 0.38780  0.29031  0.01843  Biso   1.000  O
  O12      1.0000 0.38780  0.29025  0.01848  Biso   1.000  O
  O13      1.0000 0.38771  0.29025  0.01843  Biso   1.000  O
  N24      1.0000 0.28522  0.21194  0.09359  Biso   1.000  N
  C31      1.0000 0.04585  0.20815  0.99890  Biso   1.000  C
  C32      1.0000 0.04593  0.20815  0.99890  Biso   1.000  C
  C33      1.0000 0.18392  0.16338  0.09209  Biso   1.000  C
  C34      1.0000 0.18384  0.16338  0.09209  Biso   1.000  C
  C35      1.0000 0.48170  0.82317  0.81853  Biso   1.000  C
  N25      1.0000 0.58815  0.82909  0.81531  Biso   1.000  N
  C36      1.0000 0.67876  0.85375  0.70596  Biso   1.000  C
  C37      1.0000 0.67884  0.85381  0.70591  Biso   1.000  C
  H27      1.0000 0.48680  0.87221  0.64665  Biso   1.000  H
  C38      1.0000 0.60032  0.96952  0.62893  Biso   1.000  C
  H28      1.0000 0.48680  0.87221  0.64659  Biso   1.000  H
  H29      1.0000 0.44319  0.96850  0.64861  Biso   1.000  H
  C39      1.0000 0.60040  0.96945  0.62893  Biso   1.000  C
  H30      1.0000 0.48680  0.87215  0.64665  Biso   1.000  H
  H31      1.0000 0.48679  0.87214  0.64659  Biso   1.000  H
  C40      1.0000 0.79378  0.96701  0.82562  Biso   1.000  C
  C41      1.0000 0.16481  0.01608  0.04951  Biso   1.000  C
  C42      1.0000 0.16480  0.01608  0.04946  Biso   1.000  C
  C43      1.0000 0.16473  0.01608  0.04946  Biso   1.000  C
  C44      1.0000 0.34864  0.23936  0.15571  Biso   1.000  C
  C45      1.0000 0.34856  0.23936  0.15565  Biso   1.000  C
  H32      1.0000 0.98761  0.17296  0.01781  Biso   1.000  H
  H33      1.0000 0.98769  0.17296  0.01776  Biso   1.000  H
  H34      1.0000 0.03138  0.21235  0.94886  Biso   1.000  H
  H35      1.0000 0.03137  0.21235  0.94881  Biso   1.000  H
  C46      1.0000 0.05281  0.30076  0.03236  Biso   1.000  C
  C47      1.0000 0.05273  0.30076  0.03236  Biso   1.000  C
  C48      1.0000 0.10445  0.20736  0.13618  Biso   1.000  C
  C49      1.0000 0.10453  0.20743  0.13618  Biso   1.000  C
  N26      1.0000 0.19205  0.06967  0.10618  Biso   1.000  N
  C50      1.0000 0.10453  0.20736  0.13618  Biso   1.000  C
  O14      1.0000 0.43027  0.76923  0.85101  Biso   1.000  O
  O15      1.0000 0.43034  0.76916  0.85101  Biso   1.000  O
  C51      1.0000 0.65134  0.76068  0.84432  Biso   1.000  C
  C52      1.0000 0.69906  0.91928  0.64903  Biso   1.000  C
  H36      1.0000 0.74596  0.83180  0.72316  Biso   1.000  H
  H37      1.0000 0.63516  0.80315  0.68643  Biso   1.000  H
  H38      1.0000 0.74604  0.83180  0.72311  Biso   1.000  H
  H39      1.0000 0.58802  0.96590  0.57853  Biso   1.000  H
  H40      1.0000 0.58794  0.96590  0.57853  Biso   1.000  H
  H41      1.0000 0.61312  0.03203  0.64250  Biso   1.000  H
  H42      1.0000 0.61320  0.03203  0.64250  Biso   1.000  H
  H43      1.0000 0.82506  0.02755  0.82702  Biso   1.000  H
  H44      1.0000 0.83265  0.93234  0.79304  Biso   1.000  H
  N27      1.0000 0.80801  0.93044  0.89379  Biso   1.000  N
  H45      1.0000 0.83257  0.93234  0.79304  Biso   1.000  H
  H46      1.0000 0.83257  0.93227  0.79304  Biso   1.000  H
  N28      1.0000 0.80800  0.93037  0.89379  Biso   1.000  N
  O16      1.0000 0.15724  0.93584  0.04858  Biso   1.000  O
  N29      1.0000 0.41175  0.17101  0.18471  Biso   1.000  N
  N30      1.0000 0.41183  0.17101  0.18466  Biso   1.000  N
  H47      1.0000 0.30195  0.25936  0.19088  Biso   1.000  H
  N31      1.0000 0.41183  0.17095  0.18471  Biso   1.000  N
  H48      1.0000 0.30187  0.25936  0.19088  Biso   1.000  H
  H49      1.0000 0.39531  0.28996  0.14467  Biso   1.000  H
  N32      1.0000 0.41175  0.17094  0.18466  Biso   1.000  N
  H50      1.0000 0.98487  0.32760  0.02527  Biso   1.000  H
  H51      1.0000 0.98479  0.32760  0.02527  Biso   1.000  H
  C53      1.0000 0.08231  0.29996  0.11007  Biso   1.000  C
  H52      1.0000 0.10558  0.33747  0.00947  Biso   1.000  H
  C54      1.0000 0.08223  0.29996  0.11007  Biso   1.000  C
  H53      1.0000 0.10550  0.33747  0.00947  Biso   1.000  H
  C55      1.0000 0.20620  0.03309  0.17435  Biso   1.000  C
  H54      1.0000 0.13188  0.21210  0.18451  Biso   1.000  H
  H55      1.0000 0.13188  0.21210  0.18446  Biso   1.000  H
  H56      1.0000 0.03874  0.17064  0.13447  Biso   1.000  H
  H57      1.0000 0.13196  0.21210  0.18451  Biso   1.000  H
  H58      1.0000 0.03866  0.17064  0.13447  Biso   1.000  H
  N33      1.0000 0.71476  0.78810  0.90643  Biso   1.000  N
  H59      1.0000 0.60467  0.71014  0.85536  Biso   1.000  H
  N34      1.0000 0.71468  0.78810  0.90643  Biso   1.000  N
  H60      1.0000 0.69811  0.74067  0.80910  Biso   1.000  H
  H61      1.0000 0.60459  0.71014  0.85531  Biso   1.000  H
  H62      1.0000 0.60459  0.71007  0.85536  Biso   1.000  H
  H63      1.0000 0.60459  0.71007  0.85531  Biso   1.000  H
  H64      1.0000 0.75616  0.96188  0.66483  Biso   1.000  H
  H65      1.0000 0.72169  0.88738  0.60811  Biso   1.000  H
  C56      1.0000 0.83525  0.98402  0.95052  Biso   1.000  C
  C57      1.0000 0.83518  0.98402  0.95052  Biso   1.000  C
  C58      1.0000 0.81607  0.83672  0.90794  Biso   1.000  C
  C59      1.0000 0.37581  0.10582  0.23367  Biso   1.000  C
  C60      1.0000 0.51828  0.17686  0.18150  Biso   1.000  C
  C61      1.0000 0.37572  0.10575  0.23367  Biso   1.000  C
  C62      1.0000 0.51828  0.17686  0.18145  Biso   1.000  C
  H66      1.0000 0.14490  0.33940  0.12007  Biso   1.000  H
  H67      1.0000 0.02481  0.32329  0.13561  Biso   1.000  H
  H68      1.0000 0.02481  0.32329  0.13555  Biso   1.000  H
  H69      1.0000 0.14482  0.33940  0.12007  Biso   1.000  H
  H70      1.0000 0.02473  0.32329  0.13555  Biso   1.000  H
  H71      1.0000 0.17500  0.97256  0.17296  Biso   1.000  H
  H72      1.0000 0.16741  0.06776  0.20699  Biso   1.000  H
  H73      1.0000 0.16742  0.06783  0.20699  Biso   1.000  H
  N35      1.0000 0.31445  0.03116  0.20077  Biso   1.000  N
  H74      1.0000 0.16733  0.06776  0.20699  Biso   1.000  H
  C63      1.0000 0.68880  0.75899  0.97036  Biso   1.000  C
  N36      1.0000 0.85832  0.93240  0.00569  Biso   1.000  N
  O17      1.0000 0.84275  0.06426  0.95145  Biso   1.000  O
  O18      1.0000 0.84274  0.06426  0.95140  Biso   1.000  O
  O19      1.0000 0.84274  0.06420  0.95145  Biso   1.000  O
  C64      1.0000 0.89553  0.79274  0.86385  Biso   1.000  C
  C65      1.0000 0.85124  0.83790  0.98745  Biso   1.000  C
  C66      1.0000 0.89545  0.79274  0.86380  Biso   1.000  C
  C67      1.0000 0.89552  0.79267  0.86380  Biso   1.000  C
  C68      1.0000 0.85123  0.83790  0.98740  Biso   1.000  C
  C69      1.0000 0.48072  0.06302  0.25890  Biso   1.000  C
  C70      1.0000 0.48071  0.06296  0.25890  Biso   1.000  C
  C71      1.0000 0.48064  0.06296  0.25890  Biso   1.000  C
  C72      1.0000 0.32114  0.14629  0.29407  Biso   1.000  C
  N37      1.0000 0.56037  0.11328  0.22300  Biso   1.000  N
  N38      1.0000 0.56045  0.11328  0.22300  Biso   1.000  N
  O20      1.0000 0.56971  0.23087  0.14897  Biso   1.000  O
  C73      1.0000 0.36668  0.95433  0.20290  Biso   1.000  C
  C74      1.0000 0.36668  0.95433  0.20285  Biso   1.000  C
  O21      1.0000 0.61226  0.70979  0.98155  Biso   1.000  O
  O22      1.0000 0.61218  0.70979  0.98155  Biso   1.000  O
  N39      1.0000 0.76316  0.78966  0.01827  Biso   1.000  N
  N40      1.0000 0.76324  0.78960  0.01827  Biso   1.000  N
  N41      1.0000 0.76323  0.78960  0.01822  Biso   1.000  N
  C75      1.0000 0.89891  0.97144  0.07085  Biso   1.000  C
  H75      1.0000 0.96132  0.82939  0.86556  Biso   1.000  H
  H76      1.0000 0.86810  0.78800  0.81552  Biso   1.000  H
  C76      1.0000 0.91775  0.70014  0.88996  Biso   1.000  C
  C77      1.0000 0.91767  0.70014  0.88991  Biso   1.000  C
  C78      1.0000 0.91767  0.70008  0.88996  Biso   1.000  C
  H77      1.0000 0.96131  0.82939  0.86551  Biso   1.000  H
  C79      1.0000 0.91774  0.70007  0.88991  Biso   1.000  C
  C80      1.0000 0.95413  0.79195  0.00108  Biso   1.000  C
  N42      1.0000 0.46481  0.97229  0.23211  Biso   1.000  N
  N43      1.0000 0.46481  0.97228  0.23206  Biso   1.000  N
  N44      1.0000 0.46489  0.97222  0.23211  Biso   1.000  N
  N45      1.0000 0.46488  0.97222  0.23206  Biso   1.000  N
  C81      1.0000 0.49698  0.06662  0.33748  Biso   1.000  C
  C82      1.0000 0.49698  0.06656  0.33748  Biso   1.000  C
  H78      1.0000 0.36482  0.19689  0.31360  Biso   1.000  H
  C83      1.0000 0.30093  0.08083  0.35100  Biso   1.000  C
  C84      1.0000 0.30092  0.08076  0.35100  Biso   1.000  C
  H79      1.0000 0.25394  0.16830  0.27687  Biso   1.000  H
  H80      1.0000 0.36474  0.19689  0.31360  Biso   1.000  H
  C85      1.0000 0.30084  0.08076  0.35100  Biso   1.000  C
  C86      1.0000 0.67327  0.10972  0.23569  Biso   1.000  C
  C87      1.0000 0.67327  0.10966  0.23569  Biso   1.000  C
  O23      1.0000 0.33038  0.88054  0.18425  Biso   1.000  O
  C88      1.0000 0.76153  0.76544  0.08981  Biso   1.000  C
  C89      1.0000 0.76152  0.76544  0.08976  Biso   1.000  C
  H81      1.0000 0.95745  0.93706  0.08821  Biso   1.000  H
  N46      1.0000 0.82385  0.97634  0.12431  Biso   1.000  N
  H82      1.0000 0.95745  0.93705  0.08816  Biso   1.000  H
  N47      1.0000 0.82384  0.97634  0.12426  Biso   1.000  N
  H83      1.0000 0.92746  0.03133  0.06277  Biso   1.000  H
  H84      1.0000 0.92739  0.03140  0.06277  Biso   1.000  H
  H85      1.0000 0.85517  0.66071  0.87996  Biso   1.000  H
  C90      1.0000 0.94725  0.69935  0.96766  Biso   1.000  C
  H86      1.0000 0.97517  0.67681  0.86442  Biso   1.000  H
  C91      1.0000 0.94717  0.69934  0.96761  Biso   1.000  C
  H87      1.0000 0.85509  0.66071  0.87996  Biso   1.000  H
  C92      1.0000 0.94717  0.69928  0.96766  Biso   1.000  C
  C93      1.0000 0.94724  0.69928  0.96761  Biso   1.000  C
  H88      1.0000 0.96861  0.78775  0.05117  Biso   1.000  H
  H89      1.0000 0.01237  0.82708  0.98222  Biso   1.000  H
  C94      1.0000 0.53311  0.90129  0.25092  Biso   1.000  C
  C95      1.0000 0.53310  0.90129  0.25087  Biso   1.000  C
  C96      1.0000 0.53318  0.90122  0.25092  Biso   1.000  C
  C97      1.0000 0.53318  0.90122  0.25087  Biso   1.000  C
  C98      1.0000 0.39958  0.03059  0.37110  Biso   1.000  C
  H90      1.0000 0.55680  0.03160  0.35141  Biso   1.000  H
  H91      1.0000 0.55679  0.03160  0.35136  Biso   1.000  H
  C99      1.0000 0.39966  0.03059  0.37110  Biso   1.000  C
  H92      1.0000 0.51326  0.12789  0.35338  Biso   1.000  H
  H93      1.0000 0.24382  0.03822  0.33515  Biso   1.000  H
  H94      1.0000 0.24382  0.03816  0.33520  Biso   1.000  H
  H95      1.0000 0.27828  0.11266  0.39187  Biso   1.000  H
  H96      1.0000 0.24374  0.03816  0.33515  Biso   1.000  H
  N48      1.0000 0.71975  0.03862  0.19798  Biso   1.000  N
  N49      1.0000 0.71974  0.03855  0.19798  Biso   1.000  N
  H97      1.0000 0.68825  0.10253  0.28542  Biso   1.000  H
  H98      1.0000 0.68832  0.10253  0.28537  Biso   1.000  H
  H99      1.0000 0.70699  0.16616  0.22300  Biso   1.000  H
  H100     1.0000 0.68832  0.10246  0.28542  Biso   1.000  H
  H101     1.0000 0.70691  0.16616  0.22300  Biso   1.000  H
  H102     1.0000 0.68824  0.10246  0.28537  Biso   1.000  H
  N50      1.0000 0.72864  0.83484  0.13628  Biso   1.000  N
  H103     1.0000 0.71378  0.71307  0.09328  Biso   1.000  H
  H104     1.0000 0.83208  0.74913  0.10535  Biso   1.000  H
  H105     1.0000 0.71385  0.71301  0.09328  Biso   1.000  H
  H106     1.0000 0.83216  0.74913  0.10535  Biso   1.000  H
  C100     1.0000 0.79761  0.90444  0.17021  Biso   1.000  C
  C101     1.0000 0.79761  0.90443  0.17016  Biso   1.000  C
  C102     1.0000 0.78250  0.05501  0.14421  Biso   1.000  C
  C103     1.0000 0.78250  0.05501  0.14415  Biso   1.000  C
  C104     1.0000 0.78250  0.05495  0.14421  Biso   1.000  C
  C105     1.0000 0.78242  0.05494  0.14415  Biso   1.000  C
  H107     1.0000 0.89448  0.66263  0.99056  Biso   1.000  H
  H108     1.0000 0.89440  0.66263  0.99051  Biso   1.000  H
  H109     1.0000 0.89440  0.66256  0.99056  Biso   1.000  H
  H110     1.0000 0.89439  0.66256  0.99051  Biso   1.000  H
  H111     1.0000 0.01511  0.67251  0.97476  Biso   1.000  H
  H112     1.0000 0.01519  0.67251  0.97471  Biso   1.000  H
  H113     1.0000 0.01519  0.67251  0.97476  Biso   1.000  H
  N51      1.0000 0.62496  0.89645  0.20979  Biso   1.000  N
  H114     1.0000 0.55654  0.90935  0.29977  Biso   1.000  H
  H115     1.0000 0.49213  0.84461  0.24589  Biso   1.000  H
  H116     1.0000 0.38686  0.96807  0.35748  Biso   1.000  H
  H117     1.0000 0.41205  0.03420  0.42150  Biso   1.000  H
  H118     1.0000 0.41196  0.03420  0.42145  Biso   1.000  H
  C106     1.0000 0.72453  0.94769  0.22248  Biso   1.000  C
  C107     1.0000 0.72453  0.94762  0.22248  Biso   1.000  C
  C108     1.0000 0.63060  0.83074  0.16099  Biso   1.000  C
  C109     1.0000 0.63068  0.83074  0.16099  Biso   1.000  C
  C110     1.0000 0.89473  0.86757  0.20678  Biso   1.000  C
  O24      1.0000 0.80221  0.12646  0.11898  Biso   1.000  O
  C111     1.0000 0.76795  0.94394  0.29687  Biso   1.000  C
  C112     1.0000 0.76796  0.94394  0.29692  Biso   1.000  C
  O25      1.0000 0.56009  0.77534  0.14410  Biso   1.000  O
  H119     1.0000 0.94083  0.91651  0.22647  Biso   1.000  H
  H120     1.0000 0.93403  0.83491  0.17311  Biso   1.000  H
  C113     1.0000 0.86239  0.80634  0.26387  Biso   1.000  C
  H121     1.0000 0.93402  0.83491  0.17306  Biso   1.000  H
  H122     1.0000 0.83119  0.98338  0.30308  Biso   1.000  H
  C114     1.0000 0.79502  0.85014  0.31650  Biso   1.000  C
  H123     1.0000 0.71569  0.96519  0.32795  Biso   1.000  H
  C115     1.0000 0.79501  0.85013  0.31645  Biso   1.000  C
  H124     1.0000 0.83127  0.98332  0.30308  Biso   1.000  H
  H125     1.0000 0.71577  0.96513  0.32795  Biso   1.000  H
  C116     1.0000 0.79509  0.85013  0.31645  Biso   1.000  C
  H126     1.0000 0.82293  0.75438  0.24310  Biso   1.000  H
  H127     1.0000 0.92575  0.78595  0.28806  Biso   1.000  H
  H128     1.0000 0.82292  0.75432  0.24310  Biso   1.000  H
  H129     1.0000 0.92575  0.78595  0.28811  Biso   1.000  H
  H130     1.0000 0.72969  0.81400  0.32038  Biso   1.000  H
  H131     1.0000 0.83283  0.85247  0.36198  Biso   1.000  H
  H132     1.0000 0.72977  0.81393  0.32038  Biso   1.000  H
  C117     1.0000 0.67830  0.34713  0.79843  Biso   1.000  C
  C118     1.0000 0.62615  0.39246  0.73709  Biso   1.000  C
  C119     1.0000 0.70611  0.41214  0.85862  Biso   1.000  C
  H133     1.0000 0.74240  0.32065  0.78382  Biso   1.000  H
  H134     1.0000 0.63071  0.29944  0.81371  Biso   1.000  H
  N52      1.0000 0.58301  0.32937  0.68311  Biso   1.000  N
  C120     1.0000 0.52601  0.44113  0.75844  Biso   1.000  C
  N53      1.0000 0.69268  0.46333  0.71031  Biso   1.000  N
  C121     1.0000 0.61423  0.46856  0.87613  Biso   1.000  C
  H135     1.0000 0.72755  0.37905  0.89949  Biso   1.000  H
  H136     1.0000 0.76599  0.45114  0.84691  Biso   1.000  H
  C122     1.0000 0.64025  0.26021  0.65240  Biso   1.000  C
  C123     1.0000 0.47503  0.32911  0.67529  Biso   1.000  C
  N54      1.0000 0.44030  0.39376  0.71793  Biso   1.000  N
  N55      1.0000 0.54755  0.53037  0.73492  Biso   1.000  N
  C124     1.0000 0.51182  0.43907  0.83593  Biso   1.000  C
  C125     1.0000 0.80043  0.45697  0.69171  Biso   1.000  C
  C126     1.0000 0.64560  0.54335  0.71052  Biso   1.000  C
  H137     1.0000 0.60356  0.46547  0.92581  Biso   1.000  H
  H138     1.0000 0.63246  0.53044  0.86582  Biso   1.000  H
  N56      1.0000 0.70208  0.28774  0.59515  Biso   1.000  N
  H139     1.0000 0.68729  0.23655  0.68830  Biso   1.000  H
  H140     1.0000 0.59016  0.21217  0.63613  Biso   1.000  H
  O26      1.0000 0.41964  0.27744  0.63882  Biso   1.000  O
  C127     1.0000 0.32893  0.39927  0.72880  Biso   1.000  C
  C128     1.0000 0.48270  0.60405  0.74771  Biso   1.000  C
  H141     1.0000 0.49012  0.37887  0.84883  Biso   1.000  H
  H142     1.0000 0.45644  0.47837  0.84790  Biso   1.000  H
  N57      1.0000 0.81274  0.42157  0.62209  Biso   1.000  N
  H143     1.0000 0.83561  0.51608  0.69591  Biso   1.000  H
  H144     1.0000 0.83614  0.41913  0.72492  Biso   1.000  H
  O27      1.0000 0.68655  0.61402  0.69399  Biso   1.000  O
  C129     1.0000 0.67783  0.25504  0.52942  Biso   1.000  C
  C130     1.0000 0.80889  0.32821  0.60220  Biso   1.000  C
  N58      1.0000 0.27923  0.46992  0.69291  Biso   1.000  N
  H145     1.0000 0.31988  0.40717  0.77864  Biso   1.000  H
  H146     1.0000 0.29263  0.34293  0.71383  Biso   1.000  H
  N59      1.0000 0.38960  0.60595  0.70202  Biso   1.000  N
  H147     1.0000 0.52512  0.65916  0.74321  Biso   1.000  H
  H148     1.0000 0.46113  0.60183  0.79563  Biso   1.000  H
  C131     1.0000 0.83510  0.47655  0.56863  Biso   1.000  C
  N60      1.0000 0.75601  0.28075  0.48751  Biso   1.000  N
  O28      1.0000 0.60049  0.20721  0.51160  Biso   1.000  O
  C132     1.0000 0.84257  0.33002  0.52533  Biso   1.000  C
  C133     1.0000 0.88132  0.27363  0.64784  Biso   1.000  C
  C134     1.0000 0.21893  0.45401  0.63281  Biso   1.000  C
  C135     1.0000 0.28697  0.56346  0.71430  Biso   1.000  C
  C136     1.0000 0.38170  0.67275  0.65582  Biso   1.000  C
  N61      1.0000 0.84776  0.42464  0.51051  Biso   1.000  N
  O29      1.0000 0.84641  0.55662  0.57247  Biso   1.000  O
  C137     1.0000 0.75289  0.25571  0.41509  Biso   1.000  C
  C138     1.0000 0.94736  0.28772  0.51683  Biso   1.000  C
  H149     1.0000 0.85135  0.26536  0.69311  Biso   1.000  H
  H150     1.0000 0.95020  0.30491  0.65530  Biso   1.000  H
  C139     1.0000 0.89371  0.18401  0.61272  Biso   1.000  C
  N62      1.0000 0.18545  0.53326  0.60940  Biso   1.000  N
  O30      1.0000 0.19433  0.38115  0.60640  Biso   1.000  O
  C140     1.0000 0.21173  0.60652  0.65851  Biso   1.000  C
  C141     1.0000 0.25317  0.57873  0.78750  Biso   1.000  C
  N63      1.0000 0.27972  0.67587  0.63152  Biso   1.000  N
  O31      1.0000 0.45318  0.72375  0.64074  Biso   1.000  O
  C142     1.0000 0.88969  0.46370  0.44959  Biso   1.000  C
  N64      1.0000 0.72028  0.32422  0.36852  Biso   1.000  N
  H151     1.0000 0.82303  0.23852  0.40333  Biso   1.000  H
  H152     1.0000 0.70453  0.20364  0.40732  Biso   1.000  H
  C143     1.0000 0.94430  0.19320  0.54299  Biso   1.000  C
  H153     1.0000 0.96358  0.28713  0.46783  Biso   1.000  H
  H154     1.0000 0.00340  0.32324  0.54273  Biso   1.000  H
  H155     1.0000 0.93724  0.14813  0.64312  Biso   1.000  H
  H156     1.0000 0.82440  0.15314  0.60552  Biso   1.000  H
  C144     1.0000 0.11031  0.53632  0.55040  Biso   1.000  C
  C145     1.0000 0.11380  0.64113  0.69099  Biso   1.000  C
  C146     1.0000 0.13946  0.54692  0.79620  Biso   1.000  C
  H157     1.0000 0.29917  0.54754  0.81972  Biso   1.000  H
  H158     1.0000 0.26143  0.64218  0.79931  Biso   1.000  H
  C147     1.0000 0.24711  0.74431  0.58490  Biso   1.000  C
  N65      1.0000 0.81455  0.46682  0.39059  Biso   1.000  N
  H159     1.0000 0.91669  0.52412  0.46171  Biso   1.000  H
  H160     1.0000 0.94919  0.43003  0.43581  Biso   1.000  H
  C148     1.0000 0.61830  0.32734  0.34423  Biso   1.000  C
  C149     1.0000 0.78827  0.39350  0.34153  Biso   1.000  C
  H161     1.0000 0.90497  0.15430  0.50859  Biso   1.000  H
  H162     1.0000 0.01632  0.17356  0.54750  Biso   1.000  H
  N66      1.0000 0.15224  0.57545  0.48953  Biso   1.000  N
  H163     1.0000 0.08331  0.47590  0.53833  Biso   1.000  H
  H164     1.0000 0.05081  0.57005  0.56423  Biso   1.000  H
  H165     1.0000 0.13353  0.69472  0.71912  Biso   1.000  H
  H166     1.0000 0.06276  0.65662  0.65431  Biso   1.000  H
  C150     1.0000 0.06444  0.57184  0.73600  Biso   1.000  C
  H167     1.0000 0.13604  0.48246  0.80024  Biso   1.000  H
  H168     1.0000 0.11576  0.57247  0.83940  Biso   1.000  H
  N67      1.0000 0.24399  0.71934  0.51253  Biso   1.000  N
  H169     1.0000 0.17706  0.76157  0.59671  Biso   1.000  H
  H170     1.0000 0.29555  0.79645  0.59272  Biso   1.000  H
  C151     1.0000 0.78107  0.54601  0.36723  Biso   1.000  C
  N68      1.0000 0.61040  0.39414  0.29802  Biso   1.000  N
  O32      1.0000 0.54682  0.27634  0.35925  Biso   1.000  O
  C152     1.0000 0.71311  0.43663  0.28569  Biso   1.000  C
  C153     1.0000 0.88620  0.35889  0.30900  Biso   1.000  C
  C154     1.0000 0.16490  0.52353  0.43141  Biso   1.000  C
  C155     1.0000 0.15744  0.67007  0.47471  Biso   1.000  C
  H171     1.0000 0.04394  0.51877  0.70762  Biso   1.000  H
  H172     1.0000 0.00056  0.59422  0.75471  Biso   1.000  H
  C156     1.0000 0.32218  0.74505  0.47062  Biso   1.000  C
  N69      1.0000 0.72077  0.53010  0.30708  Biso   1.000  N
  O33      1.0000 0.80567  0.61893  0.39359  Biso   1.000  O
  C157     1.0000 0.51731  0.39604  0.25233  Biso   1.000  C
  C158     1.0000 0.74690  0.42129  0.21249  Biso   1.000  C
  C159     1.0000 0.93556  0.42825  0.26398  Biso   1.000  C
  H173     1.0000 0.86647  0.30531  0.28092  Biso   1.000  H
  H174     1.0000 0.93724  0.34340  0.34573  Biso   1.000  H
  N70      1.0000 0.18734  0.57852  0.37790  Biso   1.000  N
  O34      1.0000 0.15358  0.44340  0.42752  Biso   1.000  O
  C160     1.0000 0.19111  0.67181  0.39779  Biso   1.000  C
  C161     1.0000 0.05264  0.71236  0.48321  Biso   1.000  C
  N71      1.0000 0.29793  0.71235  0.40489  Biso   1.000  N
  O35      1.0000 0.39951  0.79281  0.48844  Biso   1.000  O
  C162     1.0000 0.67107  0.60081  0.27118  Biso   1.000  C
  N72      1.0000 0.45245  0.46971  0.26512  Biso   1.000  N
  H175     1.0000 0.47488  0.34092  0.25678  Biso   1.000  H
  H176     1.0000 0.53887  0.39819  0.20441  Biso   1.000  H
  H177     1.0000 0.70084  0.45254  0.18032  Biso   1.000  H
  H178     1.0000 0.73857  0.35790  0.20068  Biso   1.000  H
  C163     1.0000 0.86054  0.45310  0.20379  Biso   1.000  C
  H179     1.0000 0.95606  0.48132  0.29242  Biso   1.000  H
  H180     1.0000 0.99944  0.40580  0.24528  Biso   1.000  H
  C164     1.0000 0.19957  0.54311  0.30833  Biso   1.000  C
  C165     1.0000 0.11868  0.72646  0.35220  Biso   1.000  C
  C166     1.0000 0.05570  0.80682  0.45700  Biso   1.000  C
  H181     1.0000 0.03643  0.71296  0.53222  Biso   1.000  H
  H182     1.0000 0.99660  0.67685  0.45731  Biso   1.000  H
  C167     1.0000 0.35982  0.73981  0.34759  Biso   1.000  C
  N73      1.0000 0.55970  0.60633  0.28211  Biso   1.000  N
  H183     1.0000 0.68020  0.59291  0.22140  Biso   1.000  H
  H184     1.0000 0.70738  0.65715  0.28621  Biso   1.000  H
  C168     1.0000 0.35441  0.45674  0.28952  Biso   1.000  C
  C169     1.0000 0.47399  0.55889  0.24161  Biso   1.000  C
  H185     1.0000 0.86396  0.51763  0.19980  Biso   1.000  H
  H186     1.0000 0.88424  0.42762  0.16059  Biso   1.000  H
  N74      1.0000 0.30733  0.53675  0.28973  Biso   1.000  N
  H187     1.0000 0.16440  0.48401  0.30413  Biso   1.000  H
  H188     1.0000 0.16386  0.58095  0.27512  Biso   1.000  H
  H189     1.0000 0.14866  0.73472  0.30693  Biso   1.000  H
  H190     1.0000 0.04980  0.69511  0.34469  Biso   1.000  H
  C170     1.0000 0.10629  0.81601  0.38732  Biso   1.000  C
  H191     1.0000 0.09502  0.84572  0.49140  Biso   1.000  H
  H192     1.0000 0.98361  0.82652  0.45249  Biso   1.000  H
  N75      1.0000 0.41700  0.67072  0.31693  Biso   1.000  N
  H193     1.0000 0.31271  0.76353  0.31169  Biso   1.000  H
  H194     1.0000 0.40993  0.78792  0.36391  Biso   1.000  H
  C171     1.0000 0.52497  0.67091  0.32470  Biso   1.000  C
  O36      1.0000 0.31353  0.38600  0.30605  Biso   1.000  O
  C172     1.0000 0.37385  0.60762  0.26290  Biso   1.000  C
  C173     1.0000 0.48819  0.56102  0.16411  Biso   1.000  C
  H195     1.0000 0.06277  0.85195  0.35692  Biso   1.000  H
  H196     1.0000 0.17561  0.84695  0.39453  Biso   1.000  H
  O37      1.0000 0.58036  0.72265  0.36122  Biso   1.000  O
  C174     1.0000 0.32170  0.65289  0.20161  Biso   1.000  C
  C175     1.0000 0.38578  0.53152  0.12391  Biso   1.000  C
  H197     1.0000 0.50989  0.62122  0.15121  Biso   1.000  H
  H198     1.0000 0.54356  0.52171  0.15209  Biso   1.000  H
  C176     1.0000 0.29390  0.58794  0.14142  Biso   1.000  C
  H199     1.0000 0.25760  0.67944  0.21622  Biso   1.000  H
  H200     1.0000 0.36929  0.70064  0.18628  Biso   1.000  H
  H201     1.0000 0.39644  0.53461  0.07418  Biso   1.000  H
  H202     1.0000 0.36754  0.46958  0.13422  Biso   1.000  H
  H203     1.0000 0.27245  0.62103  0.10050  Biso   1.000  H
  H204     1.0000 0.23402  0.54895  0.15313  Biso   1.000  H
  Ne1      1.0000 0.50000  0.50003  0.50001  Biso   1.000  Ne
  He1      1.0000 0.63130  0.66676  0.52688  Biso   1.000  He
  He2      1.0000 0.36568  0.32893  0.47244  Biso   1.000  He
  Ar1      1.0000 0.50000  0.50004  0.50002  Biso   1.000  Ar
  Ne2      1.0000 0.50107  0.00453  0.00287  Biso   1.000  Ne
  He3      1.0000 0.36928  0.81407  0.01783  Biso   1.000  He
  He4      1.0000 0.62564  0.17892  0.98266  Biso   1.000  He
  Ar2      1.0000 0.50078  0.00112  0.99935  Biso   1.000  Ar
