data_image0
_cell_length_a       10.654
_cell_length_b       23.151
_cell_length_c       25.363
_cell_angle_alpha    90
_cell_angle_beta     90
_cell_angle_gamma    90

_symmetry_space_group_name_H-M    "P 1"
_symmetry_int_tables_number       1

loop_
  _symmetry_equiv_pos_as_xyz
  'x, y, z'

loop_
  _atom_site_label
  _atom_site_occupancy
  _atom_site_fract_x
  _atom_site_fract_y
  _atom_site_fract_z
  _atom_site_thermal_displace_type
  _atom_site_B_iso_or_equiv
  _atom_site_type_symbol
  C1       1.0000 0.35667  0.61699  0.51220  Biso   1.000  C
  C2       1.0000 0.32241  0.62071  0.45988  Biso   1.000  C
  C3       1.0000 0.27492  0.63198  0.55309  Biso   1.000  C
  H1       1.0000 0.43871  0.60390  0.52080  Biso   1.000  H
  C4       1.0000 0.41543  0.60611  0.41951  Biso   1.000  C
  C5       1.0000 0.20302  0.64101  0.44758  Biso   1.000  C
  C6       1.0000 0.15619  0.65112  0.53929  Biso   1.000  C
  C7       1.0000 0.31472  0.62922  0.60829  Biso   1.000  C
  N1       1.0000 0.39807  0.61211  0.37121  Biso   1.000  N
  H2       1.0000 0.49390  0.59099  0.43079  Biso   1.000  H
  C8       1.0000 0.11864  0.65600  0.48689  Biso   1.000  C
  H3       1.0000 0.17881  0.64459  0.41170  Biso   1.000  H
  H4       1.0000 0.09874  0.66131  0.56642  Biso   1.000  H
  N2       1.0000 0.42669  0.61760  0.62150  Biso   1.000  N
  H5       1.0000 0.25465  0.63630  0.63522  Biso   1.000  H
  C9       1.0000 0.50347  0.59630  0.33789  Biso   1.000  C
  C10      1.0000 0.99625  0.68079  0.47238  Biso   1.000  C
  C11      1.0000 0.45316  0.61531  0.67760  Biso   1.000  C
  C12      1.0000 0.46565  0.55030  0.29910  Biso   1.000  C
  H6       1.0000 0.57312  0.58179  0.36009  Biso   1.000  H
  H7       1.0000 0.53370  0.63082  0.31869  Biso   1.000  H
  N3       1.0000 0.91243  0.69362  0.50589  Biso   1.000  N
  H8       1.0000 0.97916  0.68762  0.43611  Biso   1.000  H
  C13      1.0000 0.49887  0.55449  0.69219  Biso   1.000  C
  H9       1.0000 0.37638  0.62468  0.69779  Biso   1.000  H
  H10      1.0000 0.51849  0.64412  0.68659  Biso   1.000  H
  N4       1.0000 0.43486  0.49670  0.32599  Biso   1.000  N
  H11      1.0000 0.39187  0.56369  0.27871  Biso   1.000  H
  H12      1.0000 0.53529  0.54352  0.27398  Biso   1.000  H
  C14      1.0000 0.79773  0.71880  0.48449  Biso   1.000  C
  N5       1.0000 0.39450  0.51449  0.68781  Biso   1.000  N
  H13      1.0000 0.56749  0.54270  0.66822  Biso   1.000  H
  H14      1.0000 0.53182  0.55440  0.72870  Biso   1.000  H
  C15      1.0000 0.32636  0.47609  0.31581  Biso   1.000  C
  C16      1.0000 0.68369  0.68520  0.50211  Biso   1.000  C
  H15      1.0000 0.80205  0.71889  0.44549  Biso   1.000  H
  H16      1.0000 0.79022  0.75941  0.49651  Biso   1.000  H
  C17      1.0000 0.40830  0.47570  0.65300  Biso   1.000  C
  C18      1.0000 0.28299  0.41968  0.33919  Biso   1.000  C
  H17      1.0000 0.27182  0.49678  0.29310  Biso   1.000  H
  N6       1.0000 0.69326  0.62572  0.48188  Biso   1.000  N
  H18      1.0000 0.67909  0.68468  0.54110  Biso   1.000  H
  H19      1.0000 0.60653  0.70368  0.48839  Biso   1.000  H
  C19      1.0000 0.31031  0.43069  0.64369  Biso   1.000  C
  H20      1.0000 0.48273  0.47531  0.63242  Biso   1.000  H
  C20      1.0000 0.16735  0.39929  0.32512  Biso   1.000  C
  C21      1.0000 0.36071  0.38858  0.37220  Biso   1.000  C
  C22      1.0000 0.69814  0.58719  0.51611  Biso   1.000  C
  C23      1.0000 0.34457  0.38029  0.61818  Biso   1.000  C
  C24      1.0000 0.18744  0.43761  0.66199  Biso   1.000  C
  C25      1.0000 0.12531  0.34508  0.34539  Biso   1.000  C
  H21      1.0000 0.11536  0.42102  0.30209  Biso   1.000  H
  C26      1.0000 0.32279  0.33510  0.39262  Biso   1.000  C
  H22      1.0000 0.44077  0.40361  0.38130  Biso   1.000  H
  C27      1.0000 0.70068  0.52391  0.50199  Biso   1.000  C
  H23      1.0000 0.70011  0.59799  0.55230  Biso   1.000  H
  C28      1.0000 0.25718  0.33580  0.61219  Biso   1.000  C
  H24      1.0000 0.42716  0.37601  0.60470  Biso   1.000  H
  C29      1.0000 0.10024  0.39398  0.65611  Biso   1.000  C
  H25      1.0000 0.16369  0.47281  0.67859  Biso   1.000  H
  C30      1.0000 0.20574  0.31450  0.37831  Biso   1.000  C
  C31      1.0000 0.00066  0.32301  0.33151  Biso   1.000  C
  C32      1.0000 0.40614  0.30379  0.42712  Biso   1.000  C
  C33      1.0000 0.70471  0.50551  0.45101  Biso   1.000  C
  C34      1.0000 0.69777  0.48469  0.54280  Biso   1.000  C
  C35      1.0000 0.29472  0.28180  0.58412  Biso   1.000  C
  C36      1.0000 0.13901  0.34240  0.63179  Biso   1.000  C
  C37      1.0000 0.97381  0.40158  0.67571  Biso   1.000  C
  H26      1.0000 0.17909  0.27822  0.39159  Biso   1.000  H
  N7       1.0000 0.92087  0.35070  0.30489  Biso   1.000  N
  H27      1.0000 0.97860  0.28539  0.34330  Biso   1.000  H
  N8       1.0000 0.37657  0.25519  0.44869  Biso   1.000  N
  H28      1.0000 0.48639  0.31981  0.43429  Biso   1.000  H
  C38      1.0000 0.70199  0.44629  0.43950  Biso   1.000  C
  H29      1.0000 0.70931  0.53289  0.42321  Biso   1.000  H
  C39      1.0000 0.69457  0.42409  0.53211  Biso   1.000  C
  H30      1.0000 0.69786  0.49799  0.57828  Biso   1.000  H
  N9       1.0000 0.40116  0.27442  0.56492  Biso   1.000  N
  H31      1.0000 0.23447  0.25170  0.58061  Biso   1.000  H
  H32      1.0000 0.08128  0.31130  0.62891  Biso   1.000  H
  N10      1.0000 0.89844  0.36050  0.68359  Biso   1.000  N
  H33      1.0000 0.94603  0.43968  0.68300  Biso   1.000  H
  C40      1.0000 0.80083  0.32500  0.29642  Biso   1.000  C
  C41      1.0000 0.47081  0.22880  0.48271  Biso   1.000  C
  C42      1.0000 0.70340  0.42940  0.38391  Biso   1.000  C
  C43      1.0000 0.69373  0.40741  0.48050  Biso   1.000  C
  C44      1.0000 0.69063  0.38309  0.57560  Biso   1.000  C
  C45      1.0000 0.42172  0.21908  0.53799  Biso   1.000  C
  C46      1.0000 0.77483  0.37260  0.70508  Biso   1.000  C
  H34      1.0000 0.79472  0.28889  0.31712  Biso   1.000  H
  H35      1.0000 0.79182  0.31502  0.25868  Biso   1.000  H
  C47      1.0000 0.69626  0.36530  0.31231  Biso   1.000  C
  H36      1.0000 0.54571  0.25398  0.48429  Biso   1.000  H
  H37      1.0000 0.49690  0.19131  0.46749  Biso   1.000  H
  N11      1.0000 0.69842  0.37588  0.36880  Biso   1.000  N
  H38      1.0000 0.70828  0.45881  0.35788  Biso   1.000  H
  H39      1.0000 0.68707  0.36741  0.47250  Biso   1.000  H
  N12      1.0000 0.67721  0.39981  0.62248  Biso   1.000  N
  H40      1.0000 0.69842  0.34301  0.56839  Biso   1.000  H
  H41      1.0000 0.34184  0.19740  0.53629  Biso   1.000  H
  H42      1.0000 0.48282  0.19572  0.55821  Biso   1.000  H
  C48      1.0000 0.67590  0.35791  0.66479  Biso   1.000  C
  H43      1.0000 0.76873  0.41402  0.71458  Biso   1.000  H
  H44      1.0000 0.76131  0.34949  0.73741  Biso   1.000  H
  H45      1.0000 0.70546  0.40240  0.29330  Biso   1.000  H
  H46      1.0000 0.61460  0.34819  0.30229  Biso   1.000  H
  H47      1.0000 0.69204  0.31882  0.65040  Biso   1.000  H
  H48      1.0000 0.59227  0.35761  0.68178  Biso   1.000  H
  C49      1.0000 0.92172  0.28089  0.46201  Biso   1.000  C
  N13      1.0000 0.90116  0.22561  0.43508  Biso   1.000  N
  H49      1.0000 0.84184  0.30258  0.46371  Biso   1.000  H
  H50      1.0000 0.98282  0.30431  0.44179  Biso   1.000  H
  C50      1.0000 0.97081  0.27122  0.51729  Biso   1.000  C
  C51      1.0000 0.79472  0.21822  0.41588  Biso   1.000  C
  N14      1.0000 0.87657  0.24478  0.55131  Biso   1.000  N
  H51      1.0000 0.99690  0.30871  0.53251  Biso   1.000  H
  H52      1.0000 0.04571  0.24599  0.51571  Biso   1.000  H
  C52      1.0000 0.75718  0.16418  0.38781  Biso   1.000  C
  H53      1.0000 0.73447  0.24828  0.41939  Biso   1.000  H
  C53      1.0000 0.90614  0.19619  0.57288  Biso   1.000  C
  C54      1.0000 0.63901  0.15762  0.36821  Biso   1.000  C
  C55      1.0000 0.84457  0.11969  0.38182  Biso   1.000  C
  C56      1.0000 0.82279  0.16492  0.60738  Biso   1.000  C
  H54      1.0000 0.98639  0.18021  0.56571  Biso   1.000  H
  C57      1.0000 0.60024  0.10600  0.34389  Biso   1.000  C
  H55      1.0000 0.58128  0.18872  0.37109  Biso   1.000  H
  C58      1.0000 0.81031  0.06928  0.35631  Biso   1.000  C
  H56      1.0000 0.92716  0.12401  0.39530  Biso   1.000  H
  C59      1.0000 0.86071  0.11140  0.62780  Biso   1.000  C
  C60      1.0000 0.70574  0.18552  0.62169  Biso   1.000  C
  C61      1.0000 0.47381  0.09840  0.32429  Biso   1.000  C
  C62      1.0000 0.68744  0.06242  0.33801  Biso   1.000  C
  C63      1.0000 0.90830  0.02432  0.34700  Biso   1.000  C
  H57      1.0000 0.94077  0.09641  0.61870  Biso   1.000  H
  C64      1.0000 0.78299  0.08030  0.66081  Biso   1.000  C
  C65      1.0000 0.62531  0.15490  0.65461  Biso   1.000  C
  H58      1.0000 0.67909  0.22180  0.60841  Biso   1.000  H
  N15      1.0000 0.39844  0.13952  0.31641  Biso   1.000  N
  H59      1.0000 0.44603  0.06030  0.31700  Biso   1.000  H
  H60      1.0000 0.66369  0.02721  0.32141  Biso   1.000  H
  H61      1.0000 0.98273  0.02471  0.36758  Biso   1.000  H
  N16      1.0000 0.89450  0.98549  0.31219  Biso   1.000  N
  C66      1.0000 0.66735  0.10069  0.67488  Biso   1.000  C
  C67      1.0000 0.82636  0.02389  0.68419  Biso   1.000  C
  C68      1.0000 0.50066  0.17701  0.66849  Biso   1.000  C
  C69      1.0000 0.27483  0.12738  0.29492  Biso   1.000  C
  C70      1.0000 0.99887  0.94549  0.30781  Biso   1.000  C
  H62      1.0000 0.61536  0.07900  0.69791  Biso   1.000  H
  N17      1.0000 0.93486  0.00328  0.67401  Biso   1.000  N
  H63      1.0000 0.77182  0.00320  0.70690  Biso   1.000  H
  N18      1.0000 0.42087  0.14928  0.69511  Biso   1.000  N
  H64      1.0000 0.47860  0.21459  0.65670  Biso   1.000  H
  H65      1.0000 0.26873  0.08600  0.28542  Biso   1.000  H
  H66      1.0000 0.26131  0.15049  0.26259  Biso   1.000  H
  C71      1.0000 0.17590  0.14211  0.33521  Biso   1.000  C
  C72      1.0000 0.95316  0.88471  0.32240  Biso   1.000  C
  H67      1.0000 0.06749  0.95728  0.33178  Biso   1.000  H
  H68      1.0000 0.03182  0.94562  0.27130  Biso   1.000  H
  C73      1.0000 0.96565  0.94972  0.70090  Biso   1.000  C
  C74      1.0000 0.30083  0.17498  0.70358  Biso   1.000  C
  N19      1.0000 0.17721  0.10021  0.37752  Biso   1.000  N
  H69      1.0000 0.19204  0.18120  0.34960  Biso   1.000  H
  H70      1.0000 0.09227  0.14241  0.31822  Biso   1.000  H
  N20      1.0000 0.92669  0.88238  0.37850  Biso   1.000  N
  H71      1.0000 0.87638  0.87530  0.30221  Biso   1.000  H
  H72      1.0000 0.01849  0.85590  0.31341  Biso   1.000  H
  C75      1.0000 0.00347  0.90372  0.66211  Biso   1.000  C
  H73      1.0000 0.89187  0.93629  0.72129  Biso   1.000  H
  H74      1.0000 0.03529  0.95650  0.72602  Biso   1.000  H
  C76      1.0000 0.19626  0.13468  0.68769  Biso   1.000  C
  H75      1.0000 0.29472  0.21109  0.68288  Biso   1.000  H
  H76      1.0000 0.29182  0.18500  0.74132  Biso   1.000  H
  C77      1.0000 0.19063  0.11688  0.42440  Biso   1.000  C
  C78      1.0000 0.81472  0.87080  0.39171  Biso   1.000  C
  N21      1.0000 0.89807  0.88791  0.62879  Biso   1.000  N
  H77      1.0000 0.07312  0.91819  0.63991  Biso   1.000  H
  H78      1.0000 0.03370  0.86921  0.68131  Biso   1.000  H
  N22      1.0000 0.19842  0.12410  0.63120  Biso   1.000  N
  H79      1.0000 0.20546  0.09762  0.70670  Biso   1.000  H
  H80      1.0000 0.11460  0.15179  0.69771  Biso   1.000  H
  C79      1.0000 0.19457  0.07589  0.46789  Biso   1.000  C
  H81      1.0000 0.19842  0.15701  0.43161  Biso   1.000  H
  C80      1.0000 0.77492  0.86800  0.44691  Biso   1.000  C
  H82      1.0000 0.75465  0.86372  0.36478  Biso   1.000  H
  C81      1.0000 0.91543  0.89391  0.58049  Biso   1.000  C
  C82      1.0000 0.20340  0.07058  0.61609  Biso   1.000  C
  C83      1.0000 0.19373  0.09261  0.51950  Biso   1.000  C
  C84      1.0000 0.19777  0.01529  0.45720  Biso   1.000  C
  C85      1.0000 0.65619  0.84891  0.46071  Biso   1.000  C
  C86      1.0000 0.85667  0.88299  0.48780  Biso   1.000  C
  C87      1.0000 0.82241  0.87931  0.54012  Biso   1.000  C
  H83      1.0000 0.99390  0.90899  0.56921  Biso   1.000  H
  C88      1.0000 0.20199  0.05369  0.56050  Biso   1.000  C
  H84      1.0000 0.20828  0.04121  0.64212  Biso   1.000  H
  H85      1.0000 0.18707  0.13261  0.52750  Biso   1.000  H
  H86      1.0000 0.19786  0.00199  0.42172  Biso   1.000  H
  C89      1.0000 0.20068  0.97611  0.49801  Biso   1.000  C
  C90      1.0000 0.61864  0.84398  0.51311  Biso   1.000  C
  H87      1.0000 0.59874  0.83871  0.43358  Biso   1.000  H
  H88      1.0000 0.93871  0.89612  0.47920  Biso   1.000  H
  C91      1.0000 0.70302  0.85901  0.55242  Biso   1.000  C
  C92      1.0000 0.20471  0.99451  0.54899  Biso   1.000  C
  C93      1.0000 0.19814  0.91279  0.48389  Biso   1.000  C
  C94      1.0000 0.49625  0.81919  0.52762  Biso   1.000  C
  H89      1.0000 0.67881  0.85538  0.58830  Biso   1.000  H
  H90      1.0000 0.20931  0.96709  0.57679  Biso   1.000  H
  N23      1.0000 0.19326  0.87430  0.51812  Biso   1.000  N
  H91      1.0000 0.20011  0.90199  0.44770  Biso   1.000  H
  N24      1.0000 0.41243  0.80640  0.49411  Biso   1.000  N
  H92      1.0000 0.47916  0.81241  0.56389  Biso   1.000  H
  C95      1.0000 0.18369  0.81478  0.49789  Biso   1.000  C
  C96      1.0000 0.29773  0.78122  0.51551  Biso   1.000  C
  H93      1.0000 0.17909  0.81530  0.45890  Biso   1.000  H
  H94      1.0000 0.10653  0.79629  0.51161  Biso   1.000  H
  H95      1.0000 0.30205  0.78109  0.55451  Biso   1.000  H
  H96      1.0000 0.29022  0.74062  0.50349  Biso   1.000  H
  N25      1.0000 0.57913  0.64930  0.80491  Biso   1.000  N
  C97      1.0000 0.49934  0.67699  0.83149  Biso   1.000  C
  C98      1.0000 0.69917  0.67500  0.79640  Biso   1.000  C
  C99      1.0000 0.37469  0.65492  0.84540  Biso   1.000  C
  H97      1.0000 0.52140  0.71461  0.84332  Biso   1.000  H
  H98      1.0000 0.70528  0.71111  0.81710  Biso   1.000  H
  H99      1.0000 0.70818  0.68498  0.75870  Biso   1.000  H
  C100     1.0000 0.80374  0.63470  0.81229  Biso   1.000  C
  C101     1.0000 0.33265  0.60071  0.82510  Biso   1.000  C
  C102     1.0000 0.29426  0.68550  0.87829  Biso   1.000  C
  N26      1.0000 0.80158  0.62412  0.86879  Biso   1.000  N
  H100     1.0000 0.79454  0.59760  0.79328  Biso   1.000  H
  H101     1.0000 0.88540  0.65181  0.80231  Biso   1.000  H
  C103     1.0000 0.21701  0.58032  0.83921  Biso   1.000  C
  H102     1.0000 0.38464  0.57898  0.80211  Biso   1.000  H
  C104     1.0000 0.17721  0.66490  0.89260  Biso   1.000  C
  H103     1.0000 0.32091  0.72178  0.89161  Biso   1.000  H
  C105     1.0000 0.79660  0.57060  0.88389  Biso   1.000  C
  C106     1.0000 0.17364  0.52391  0.81579  Biso   1.000  C
  C107     1.0000 0.13929  0.61142  0.87222  Biso   1.000  C
  C108     1.0000 0.09386  0.69621  0.92710  Biso   1.000  C
  C109     1.0000 0.79801  0.55371  0.93952  Biso   1.000  C
  H104     1.0000 0.79172  0.54119  0.85790  Biso   1.000  H
  N27      1.0000 0.06514  0.50330  0.82601  Biso   1.000  N
  H105     1.0000 0.22818  0.50322  0.79308  Biso   1.000  H
  H106     1.0000 0.05923  0.59639  0.88128  Biso   1.000  H
  N28      1.0000 0.12343  0.74481  0.94870  Biso   1.000  N
  H107     1.0000 0.01361  0.68019  0.93431  Biso   1.000  H
  C110     1.0000 0.80627  0.59259  0.98048  Biso   1.000  C
  C111     1.0000 0.79529  0.49449  0.95099  Biso   1.000  C
  C112     1.0000 0.03435  0.44970  0.79912  Biso   1.000  C
  C113     1.0000 0.02919  0.77120  0.98269  Biso   1.000  C
  H108     1.0000 0.81293  0.63259  0.97252  Biso   1.000  H
  C114     1.0000 0.80543  0.57591  0.03209  Biso   1.000  C
  C115     1.0000 0.79932  0.47609  0.00201  Biso   1.000  C
  H109     1.0000 0.79069  0.46711  0.92320  Biso   1.000  H
  H110     1.0000 0.10813  0.43631  0.77869  Biso   1.000  H
  H111     1.0000 0.96471  0.45648  0.77400  Biso   1.000  H
  C116     1.0000 0.99653  0.40370  0.83791  Biso   1.000  C
  H112     1.0000 0.00310  0.80869  0.96751  Biso   1.000  H
  H113     1.0000 0.95429  0.74602  0.98431  Biso   1.000  H
  C117     1.0000 0.07828  0.78092  0.03801  Biso   1.000  C
  C118     1.0000 0.80223  0.51531  0.04282  Biso   1.000  C
  C119     1.0000 0.80937  0.61691  0.07558  Biso   1.000  C
  C120     1.0000 0.80186  0.41281  0.01609  Biso   1.000  C
  N29      1.0000 0.10193  0.38789  0.87119  Biso   1.000  N
  H114     1.0000 0.92688  0.41821  0.86011  Biso   1.000  H
  H115     1.0000 0.96630  0.36918  0.81871  Biso   1.000  H
  N30      1.0000 0.09884  0.72558  0.06490  Biso   1.000  N
  H116     1.0000 0.15816  0.80260  0.03631  Biso   1.000  H
  H117     1.0000 0.01718  0.80428  0.05820  Biso   1.000  H
  H118     1.0000 0.80214  0.50201  0.07830  Biso   1.000  H
  N31      1.0000 0.82279  0.60019  0.12250  Biso   1.000  N
  H119     1.0000 0.80158  0.65699  0.06841  Biso   1.000  H
  N32      1.0000 0.80674  0.37428  0.98190  Biso   1.000  N
  H120     1.0000 0.79989  0.40201  0.05228  Biso   1.000  H
  C121     1.0000 0.08457  0.39389  0.91949  Biso   1.000  C
  C122     1.0000 0.20528  0.71820  0.08410  Biso   1.000  C
  C123     1.0000 0.82410  0.64209  0.16481  Biso   1.000  C
  C124     1.0000 0.81631  0.31480  0.00209  Biso   1.000  C
  C125     1.0000 0.17759  0.37929  0.95990  Biso   1.000  C
  H121     1.0000 0.00610  0.40901  0.93080  Biso   1.000  H
  C126     1.0000 0.24282  0.66420  0.11221  Biso   1.000  C
  H122     1.0000 0.26553  0.74830  0.08059  Biso   1.000  H
  C127     1.0000 0.72517  0.62740  0.20510  Biso   1.000  C
  H123     1.0000 0.80796  0.68118  0.15042  Biso   1.000  H
  H124     1.0000 0.90773  0.64239  0.18180  Biso   1.000  H
  C128     1.0000 0.70227  0.28120  0.98450  Biso   1.000  C
  H125     1.0000 0.89347  0.29632  0.98841  Biso   1.000  H
  H126     1.0000 0.82091  0.31532  0.04108  Biso   1.000  H
  C129     1.0000 0.29698  0.35899  0.94760  Biso   1.000  C
  C130     1.0000 0.14333  0.38301  0.01218  Biso   1.000  C
  C131     1.0000 0.36099  0.65760  0.13181  Biso   1.000  C
  C132     1.0000 0.15543  0.61971  0.11820  Biso   1.000  C
  N33      1.0000 0.60156  0.63950  0.18361  Biso   1.000  N
  H127     1.0000 0.73127  0.58598  0.21460  Biso   1.000  H
  H128     1.0000 0.73869  0.65051  0.23739  Biso   1.000  H
  N34      1.0000 0.58757  0.30638  0.00591  Biso   1.000  N
  H129     1.0000 0.69795  0.28111  0.94551  Biso   1.000  H
  H130     1.0000 0.70978  0.24059  0.99649  Biso   1.000  H
  C133     1.0000 0.38136  0.34400  0.98691  Biso   1.000  C
  H131     1.0000 0.32119  0.35541  0.91168  Biso   1.000  H
  C134     1.0000 0.22508  0.36802  0.05311  Biso   1.000  C
  H132     1.0000 0.06129  0.39610  0.02082  Biso   1.000  H
  H133     1.0000 0.41872  0.68870  0.12889  Biso   1.000  H
  C135     1.0000 0.39976  0.60602  0.15609  Biso   1.000  C
  C136     1.0000 0.18969  0.56931  0.14371  Biso   1.000  C
  H134     1.0000 0.07284  0.62399  0.10472  Biso   1.000  H
  C137     1.0000 0.52619  0.59842  0.17569  Biso   1.000  C
  C138     1.0000 0.50375  0.31921  0.97240  Biso   1.000  C
  C139     1.0000 0.34381  0.34888  0.03931  Biso   1.000  C
  C140     1.0000 0.18528  0.37078  0.10831  Biso   1.000  C
  C141     1.0000 0.31256  0.56239  0.16201  Biso   1.000  C
  C142     1.0000 0.09170  0.52430  0.15302  Biso   1.000  C
  H135     1.0000 0.55397  0.56032  0.18298  Biso   1.000  H
  H136     1.0000 0.52084  0.31238  0.93609  Biso   1.000  H
  H137     1.0000 0.40126  0.33869  0.06640  Biso   1.000  H
  N35      1.0000 0.07331  0.38240  0.12152  Biso   1.000  N
  H138     1.0000 0.24535  0.36370  0.13520  Biso   1.000  H
  H139     1.0000 0.33631  0.52719  0.17861  Biso   1.000  H
  N36      1.0000 0.10550  0.48551  0.18779  Biso   1.000  N
  H140     1.0000 0.01727  0.52469  0.13240  Biso   1.000  H
  C143     1.0000 0.04684  0.38469  0.17758  Biso   1.000  C
  C144     1.0000 0.00113  0.44551  0.19221  Biso   1.000  C
  H141     1.0000 0.98151  0.35588  0.18661  Biso   1.000  H
  H142     1.0000 0.12362  0.37532  0.19781  Biso   1.000  H
  H143     1.0000 0.93251  0.45730  0.16820  Biso   1.000  H
  H144     1.0000 0.96818  0.44560  0.22872  Biso   1.000  H
  C145     1.0000 0.99934  0.82299  0.16851  Biso   1.000  C
  C146     1.0000 0.87469  0.84510  0.15460  Biso   1.000  C
  N37      1.0000 0.07913  0.85072  0.19509  Biso   1.000  N
  H145     1.0000 0.02140  0.78541  0.15668  Biso   1.000  H
  C147     1.0000 0.79426  0.81448  0.12171  Biso   1.000  C
  C148     1.0000 0.83265  0.89931  0.17490  Biso   1.000  C
  C149     1.0000 0.19917  0.82502  0.20360  Biso   1.000  C
  C150     1.0000 0.67721  0.83508  0.10740  Biso   1.000  C
  H146     1.0000 0.82091  0.77820  0.10839  Biso   1.000  H
  C151     1.0000 0.71701  0.91970  0.16079  Biso   1.000  C
  H147     1.0000 0.88464  0.92100  0.19789  Biso   1.000  H
  H148     1.0000 0.20528  0.78891  0.18290  Biso   1.000  H
  H149     1.0000 0.20818  0.81500  0.24130  Biso   1.000  H
  C152     1.0000 0.30374  0.86532  0.18771  Biso   1.000  C
  C153     1.0000 0.59386  0.80381  0.07290  Biso   1.000  C
  C154     1.0000 0.63929  0.88860  0.12778  Biso   1.000  C
  C155     1.0000 0.67364  0.97611  0.18421  Biso   1.000  C
  N38      1.0000 0.30158  0.87590  0.13121  Biso   1.000  N
  H150     1.0000 0.29454  0.90238  0.20672  Biso   1.000  H
  H151     1.0000 0.38540  0.84821  0.19769  Biso   1.000  H
  N39      1.0000 0.62343  0.75522  0.05130  Biso   1.000  N
  H152     1.0000 0.51361  0.81979  0.06569  Biso   1.000  H
  H153     1.0000 0.55923  0.90359  0.11872  Biso   1.000  H
  N40      1.0000 0.56514  0.99672  0.17399  Biso   1.000  N
  H154     1.0000 0.72818  0.99680  0.20692  Biso   1.000  H
  C156     1.0000 0.29660  0.92942  0.11611  Biso   1.000  C
  C157     1.0000 0.52919  0.72878  0.01731  Biso   1.000  C
  C158     1.0000 0.53435  0.05028  0.20088  Biso   1.000  C
  C159     1.0000 0.29801  0.94631  0.06048  Biso   1.000  C
  H155     1.0000 0.29172  0.95879  0.14210  Biso   1.000  H
  H156     1.0000 0.45429  0.75401  0.01569  Biso   1.000  H
  H157     1.0000 0.50310  0.69129  0.03249  Biso   1.000  H
  C160     1.0000 0.57828  0.71911  0.96199  Biso   1.000  C
  H158     1.0000 0.60813  0.06371  0.22131  Biso   1.000  H
  H159     1.0000 0.46471  0.04350  0.22600  Biso   1.000  H
  C161     1.0000 0.49653  0.09628  0.16209  Biso   1.000  C
  C162     1.0000 0.30627  0.90739  0.01952  Biso   1.000  C
  C163     1.0000 0.29529  0.00549  0.04901  Biso   1.000  C
  N41      1.0000 0.59884  0.77439  0.93510  Biso   1.000  N
  H160     1.0000 0.65816  0.69742  0.96369  Biso   1.000  H
  H161     1.0000 0.51718  0.69569  0.94180  Biso   1.000  H
  N42      1.0000 0.60193  0.11209  0.12881  Biso   1.000  N
  H162     1.0000 0.42688  0.08181  0.13989  Biso   1.000  H
  H163     1.0000 0.46630  0.13079  0.18129  Biso   1.000  H
  C164     1.0000 0.30543  0.92411  0.96791  Biso   1.000  C
  H164     1.0000 0.31293  0.86739  0.02748  Biso   1.000  H
  C165     1.0000 0.29932  0.02389  0.99799  Biso   1.000  C
  H165     1.0000 0.29069  0.03291  0.07680  Biso   1.000  H
  C166     1.0000 0.70528  0.78178  0.91590  Biso   1.000  C
  C167     1.0000 0.58457  0.10609  0.08051  Biso   1.000  C
  C168     1.0000 0.30937  0.88312  0.92442  Biso   1.000  C
  C169     1.0000 0.30223  0.98471  0.95718  Biso   1.000  C
  C170     1.0000 0.30186  0.08721  0.98391  Biso   1.000  C
  C171     1.0000 0.74282  0.83582  0.88779  Biso   1.000  C
  H166     1.0000 0.76553  0.75172  0.91941  Biso   1.000  H
  C172     1.0000 0.67759  0.12069  0.04010  Biso   1.000  C
  H167     1.0000 0.50610  0.09101  0.06920  Biso   1.000  H
  N43      1.0000 0.32279  0.89979  0.87750  Biso   1.000  N
  H168     1.0000 0.30158  0.84299  0.93159  Biso   1.000  H
  H169     1.0000 0.30214  0.99801  0.92170  Biso   1.000  H
  H170     1.0000 0.29989  0.09801  0.94772  Biso   1.000  H
  N44      1.0000 0.30674  0.12570  0.01810  Biso   1.000  N
  C173     1.0000 0.86099  0.84238  0.86819  Biso   1.000  C
  C174     1.0000 0.65543  0.88031  0.88180  Biso   1.000  C
  C175     1.0000 0.64333  0.11701  0.98782  Biso   1.000  C
  C176     1.0000 0.79698  0.14099  0.05240  Biso   1.000  C
  C177     1.0000 0.32410  0.85789  0.83519  Biso   1.000  C
  C178     1.0000 0.31631  0.18522  0.99791  Biso   1.000  C
  H171     1.0000 0.91872  0.81128  0.87111  Biso   1.000  H
  C179     1.0000 0.89976  0.89400  0.84391  Biso   1.000  C
  C180     1.0000 0.68969  0.93072  0.85629  Biso   1.000  C
  H172     1.0000 0.57284  0.87599  0.89528  Biso   1.000  H
  C181     1.0000 0.72508  0.13200  0.94689  Biso   1.000  C
  H173     1.0000 0.56129  0.10388  0.97918  Biso   1.000  H
  C182     1.0000 0.88136  0.15602  0.01309  Biso   1.000  C
  H174     1.0000 0.82119  0.14462  0.08832  Biso   1.000  H
  C183     1.0000 0.22517  0.87262  0.79490  Biso   1.000  C
  H175     1.0000 0.30796  0.81880  0.84958  Biso   1.000  H
  H176     1.0000 0.40773  0.85759  0.81820  Biso   1.000  H
  C184     1.0000 0.20227  0.21878  0.01550  Biso   1.000  C
  H177     1.0000 0.32091  0.18470  0.95892  Biso   1.000  H
  H178     1.0000 0.39347  0.20371  0.01159  Biso   1.000  H
  C185     1.0000 0.81256  0.93758  0.83799  Biso   1.000  C
  C186     1.0000 0.02619  0.90160  0.82431  Biso   1.000  C
  C187     1.0000 0.59170  0.97568  0.84698  Biso   1.000  C
  C188     1.0000 0.68528  0.12920  0.89169  Biso   1.000  C
  C189     1.0000 0.84381  0.15109  0.96069  Biso   1.000  C
  C190     1.0000 0.00375  0.18081  0.02760  Biso   1.000  C
  N45      1.0000 0.10156  0.86048  0.81639  Biso   1.000  N
  H179     1.0000 0.23127  0.91400  0.78540  Biso   1.000  H
  H180     1.0000 0.23869  0.84951  0.76261  Biso   1.000  H
  N46      1.0000 0.08757  0.19360  0.99409  Biso   1.000  N
  H181     1.0000 0.19795  0.21891  0.05449  Biso   1.000  H
  H182     1.0000 0.20978  0.25938  0.00351  Biso   1.000  H
  H183     1.0000 0.83631  0.97279  0.82139  Biso   1.000  H
  H184     1.0000 0.05397  0.93970  0.81702  Biso   1.000  H
  H185     1.0000 0.51727  0.97529  0.86760  Biso   1.000  H
  N47      1.0000 0.60550  0.01451  0.81221  Biso   1.000  N
  N48      1.0000 0.57331  0.11762  0.87848  Biso   1.000  N
  H186     1.0000 0.74535  0.13628  0.86480  Biso   1.000  H
  H187     1.0000 0.90126  0.16129  0.93360  Biso   1.000  H
  H188     1.0000 0.02084  0.18759  0.06391  Biso   1.000  H
  C191     1.0000 0.50113  0.05451  0.80779  Biso   1.000  C
  C192     1.0000 0.54684  0.11529  0.82242  Biso   1.000  C
  H189     1.0000 0.43251  0.04272  0.83180  Biso   1.000  H
  H190     1.0000 0.46818  0.05438  0.77128  Biso   1.000  H
  H191     1.0000 0.62362  0.12470  0.80219  Biso   1.000  H
  H192     1.0000 0.48151  0.14410  0.81339  Biso   1.000  H
