data_image0
_cell_length_a       17.149
_cell_length_b       18.391
_cell_length_c       24.717
_cell_angle_alpha    73.38
_cell_angle_beta     72.98
_cell_angle_gamma    76.7

_symmetry_space_group_name_H-M    "P 1"
_symmetry_int_tables_number       1

loop_
  _symmetry_equiv_pos_as_xyz
  'x, y, z'

loop_
  _atom_site_label
  _atom_site_occupancy
  _atom_site_fract_x
  _atom_site_fract_y
  _atom_site_fract_z
  _atom_site_thermal_displace_type
  _atom_site_B_iso_or_equiv
  _atom_site_type_symbol
  C1       1.0000 0.51707  0.59423  0.52602  Biso   1.000  C
  C2       1.0000 0.58605  0.60484  0.47130  Biso   1.000  C
  N1       1.0000 0.55230  0.55888  0.57638  Biso   1.000  N
  H1       1.0000 0.48339  0.64476  0.53028  Biso   1.000  H
  H2       1.0000 0.48078  0.56113  0.52358  Biso   1.000  H
  N2       1.0000 0.63152  0.66408  0.46891  Biso   1.000  N
  H3       1.0000 0.62427  0.55565  0.47030  Biso   1.000  H
  H4       1.0000 0.56260  0.61946  0.43678  Biso   1.000  H
  C3       1.0000 0.53230  0.59432  0.61647  Biso   1.000  C
  C4       1.0000 0.70929  0.64714  0.46103  Biso   1.000  C
  C5       1.0000 0.56317  0.56425  0.66980  Biso   1.000  C
  H5       1.0000 0.49609  0.64202  0.61221  Biso   1.000  H
  C6       1.0000 0.76056  0.70293  0.45698  Biso   1.000  C
  H6       1.0000 0.73520  0.59655  0.45768  Biso   1.000  H
  C7       1.0000 0.53084  0.60098  0.71529  Biso   1.000  C
  C8       1.0000 0.62336  0.49862  0.67568  Biso   1.000  C
  C9       1.0000 0.72515  0.77563  0.46812  Biso   1.000  C
  C10      1.0000 0.84610  0.68462  0.44144  Biso   1.000  C
  C11      1.0000 0.55723  0.57269  0.76700  Biso   1.000  C
  H7       1.0000 0.49026  0.64586  0.71128  Biso   1.000  H
  C12      1.0000 0.65035  0.47027  0.72669  Biso   1.000  C
  H8       1.0000 0.64586  0.47334  0.64460  Biso   1.000  H
  C13      1.0000 0.77417  0.82857  0.46334  Biso   1.000  C
  H9       1.0000 0.66679  0.78876  0.47909  Biso   1.000  H
  H10      1.0000 0.87076  0.63573  0.43369  Biso   1.000  H
  C14      1.0000 0.89630  0.73705  0.43704  Biso   1.000  C
  C15      1.0000 0.61758  0.50725  0.77210  Biso   1.000  C
  C16      1.0000 0.52110  0.60775  0.81680  Biso   1.000  C
  C17      1.0000 0.71259  0.39979  0.73235  Biso   1.000  C
  C18      1.0000 0.86028  0.80896  0.44749  Biso   1.000  C
  C19      1.0000 0.73337  0.90417  0.47522  Biso   1.000  C
  C20      1.0000 0.98655  0.71474  0.42359  Biso   1.000  C
  H11      1.0000 0.63627  0.48785  0.80688  Biso   1.000  H
  N3       1.0000 0.45876  0.66073  0.81928  Biso   1.000  N
  H12      1.0000 0.54559  0.58985  0.84910  Biso   1.000  H
  N4       1.0000 0.73636  0.36910  0.77867  Biso   1.000  N
  H13      1.0000 0.73536  0.37684  0.70010  Biso   1.000  H
  H14      1.0000 0.89415  0.84517  0.44388  Biso   1.000  H
  N5       1.0000 0.77029  0.95662  0.47383  Biso   1.000  N
  H15      1.0000 0.67470  0.91396  0.48471  Biso   1.000  H
  N6       1.0000 0.02116  0.64760  0.41994  Biso   1.000  N
  H16      1.0000 0.01997  0.75234  0.41750  Biso   1.000  H
  C21      1.0000 0.42890  0.68918  0.87217  Biso   1.000  C
  C22      1.0000 0.79944  0.30036  0.77854  Biso   1.000  C
  C23      1.0000 0.71819  0.02762  0.48736  Biso   1.000  C
  C24      1.0000 0.11086  0.63071  0.40683  Biso   1.000  C
  C25      1.0000 0.43837  0.77354  0.85942  Biso   1.000  C
  H17      1.0000 0.46051  0.65783  0.90099  Biso   1.000  H
  H18      1.0000 0.36997  0.68376  0.88910  Biso   1.000  H
  C26      1.0000 0.87570  0.31556  0.79042  Biso   1.000  C
  H19      1.0000 0.81406  0.28715  0.74027  Biso   1.000  H
  H20      1.0000 0.77780  0.25645  0.80879  Biso   1.000  H
  H21      1.0000 0.65929  0.02287  0.49529  Biso   1.000  H
  H22      1.0000 0.72988  0.07116  0.45328  Biso   1.000  H
  C27      1.0000 0.73351  0.04394  0.53938  Biso   1.000  C
  H23      1.0000 0.13327  0.67645  0.40548  Biso   1.000  H
  H24      1.0000 0.13258  0.61825  0.36831  Biso   1.000  H
  C28      1.0000 0.13830  0.56322  0.45328  Biso   1.000  C
  N7       1.0000 0.52438  0.78257  0.84005  Biso   1.000  N
  H25      1.0000 0.40931  0.80438  0.82899  Biso   1.000  H
  H26      1.0000 0.41260  0.79308  0.89511  Biso   1.000  H
  N8       1.0000 0.91378  0.37349  0.74202  Biso   1.000  N
  H27      1.0000 0.85988  0.33377  0.82681  Biso   1.000  H
  H28      1.0000 0.91577  0.26733  0.79551  Biso   1.000  H
  N9       1.0000 0.70349  0.98848  0.59349  Biso   1.000  N
  H29      1.0000 0.79348  0.04221  0.53342  Biso   1.000  H
  H30      1.0000 0.70547  0.09634  0.54300  Biso   1.000  H
  N10      1.0000 0.11286  0.58130  0.51061  Biso   1.000  N
  H31      1.0000 0.11396  0.51831  0.45541  Biso   1.000  H
  H32      1.0000 0.19915  0.54933  0.44240  Biso   1.000  H
  C29      1.0000 0.54766  0.82359  0.78907  Biso   1.000  C
  C30      1.0000 0.92539  0.43161  0.75460  Biso   1.000  C
  C31      1.0000 0.75356  0.95656  0.62435  Biso   1.000  C
  C32      1.0000 0.06395  0.54041  0.54983  Biso   1.000  C
  C33      1.0000 0.63307  0.83943  0.76339  Biso   1.000  C
  H33      1.0000 0.50820  0.84504  0.76639  Biso   1.000  H
  C34      1.0000 0.96519  0.49351  0.71033  Biso   1.000  C
  H34      1.0000 0.90779  0.43536  0.79399  Biso   1.000  H
  C35      1.0000 0.73206  0.90415  0.68234  Biso   1.000  C
  H35      1.0000 0.80878  0.96653  0.60968  Biso   1.000  H
  C36      1.0000 0.03270  0.54890  0.61051  Biso   1.000  C
  H36      1.0000 0.04626  0.50196  0.53960  Biso   1.000  H
  C37      1.0000 0.65195  0.88714  0.70815  Biso   1.000  C
  C38      1.0000 0.69491  0.80775  0.79347  Biso   1.000  C
  C39      1.0000 0.99320  0.49064  0.65169  Biso   1.000  C
  C40      1.0000 0.97834  0.55470  0.72739  Biso   1.000  C
  C41      1.0000 0.79247  0.87286  0.71294  Biso   1.000  C
  C42      1.0000 0.04439  0.61064  0.62797  Biso   1.000  C
  H37      1.0000 0.60996  0.90852  0.68752  Biso   1.000  H
  C43      1.0000 0.77487  0.82435  0.76879  Biso   1.000  C
  H38      1.0000 0.68239  0.77457  0.83108  Biso   1.000  H
  H39      1.0000 0.98528  0.44874  0.63981  Biso   1.000  H
  C44      1.0000 0.01829  0.61355  0.68647  Biso   1.000  C
  H40      1.0000 0.96008  0.55666  0.76718  Biso   1.000  H
  H41      1.0000 0.84677  0.88444  0.69579  Biso   1.000  H
  H42      1.0000 0.07028  0.65087  0.59989  Biso   1.000  H
  C45      1.0000 0.84009  0.78975  0.80017  Biso   1.000  C
  C46      1.0000 0.03630  0.67536  0.70606  Biso   1.000  C
  N11      1.0000 0.91102  0.80868  0.78254  Biso   1.000  N
  H43      1.0000 0.82835  0.75147  0.83530  Biso   1.000  H
  N12      1.0000 0.02774  0.67086  0.75925  Biso   1.000  N
  H44      1.0000 0.05467  0.71933  0.67798  Biso   1.000  H
  C47      1.0000 0.97175  0.76828  0.81549  Biso   1.000  C
  C48      1.0000 0.04779  0.73296  0.77575  Biso   1.000  C
  H45      1.0000 0.94831  0.72744  0.84810  Biso   1.000  H
  H46      1.0000 0.98730  0.80445  0.83199  Biso   1.000  H
  H47      1.0000 0.06679  0.77273  0.74049  Biso   1.000  H
  H48      1.0000 0.09298  0.71285  0.79608  Biso   1.000  H
  C49      1.0000 0.48288  0.40584  0.47396  Biso   1.000  C
  N13      1.0000 0.44765  0.44119  0.42359  Biso   1.000  N
  C50      1.0000 0.41389  0.39521  0.52872  Biso   1.000  C
  H49      1.0000 0.51657  0.35531  0.46969  Biso   1.000  H
  H50      1.0000 0.51917  0.43894  0.47639  Biso   1.000  H
  C51      1.0000 0.46770  0.40573  0.38354  Biso   1.000  C
  N14      1.0000 0.36850  0.33598  0.53107  Biso   1.000  N
  H51      1.0000 0.37567  0.44440  0.52972  Biso   1.000  H
  H52      1.0000 0.43740  0.38066  0.56319  Biso   1.000  H
  C52      1.0000 0.43678  0.43582  0.33018  Biso   1.000  C
  H53      1.0000 0.50391  0.35803  0.38781  Biso   1.000  H
  C53      1.0000 0.29073  0.35293  0.53895  Biso   1.000  C
  C54      1.0000 0.46912  0.39909  0.28469  Biso   1.000  C
  C55      1.0000 0.37665  0.50145  0.32430  Biso   1.000  C
  C56      1.0000 0.23938  0.29719  0.54300  Biso   1.000  C
  H54      1.0000 0.26482  0.40351  0.54230  Biso   1.000  H
  C57      1.0000 0.44273  0.42737  0.23297  Biso   1.000  C
  H55      1.0000 0.50970  0.35421  0.28869  Biso   1.000  H
  C58      1.0000 0.34960  0.52979  0.27328  Biso   1.000  C
  H56      1.0000 0.35410  0.52672  0.35538  Biso   1.000  H
  C59      1.0000 0.27479  0.22443  0.53190  Biso   1.000  C
  C60      1.0000 0.15392  0.31545  0.55854  Biso   1.000  C
  C61      1.0000 0.47892  0.39232  0.18318  Biso   1.000  C
  C62      1.0000 0.38242  0.49280  0.22792  Biso   1.000  C
  C63      1.0000 0.28743  0.60027  0.26762  Biso   1.000  C
  C64      1.0000 0.22577  0.17148  0.53668  Biso   1.000  C
  H57      1.0000 0.33321  0.21136  0.52088  Biso   1.000  H
  C65      1.0000 0.10371  0.26301  0.56293  Biso   1.000  C
  H58      1.0000 0.12920  0.36433  0.56628  Biso   1.000  H
  N15      1.0000 0.54118  0.33932  0.18074  Biso   1.000  N
  H59      1.0000 0.45441  0.41021  0.15092  Biso   1.000  H
  H60      1.0000 0.36369  0.51221  0.19310  Biso   1.000  H
  N16      1.0000 0.26365  0.63096  0.22131  Biso   1.000  N
  H61      1.0000 0.26460  0.62323  0.29988  Biso   1.000  H
  C66      1.0000 0.26658  0.09596  0.52476  Biso   1.000  C
  C67      1.0000 0.13966  0.19116  0.55249  Biso   1.000  C
  C68      1.0000 0.01340  0.28532  0.57638  Biso   1.000  C
  C69      1.0000 0.57111  0.31089  0.12780  Biso   1.000  C
  C70      1.0000 0.20054  0.69974  0.22148  Biso   1.000  C
  N17      1.0000 0.22971  0.04344  0.52619  Biso   1.000  N
  H62      1.0000 0.32529  0.08615  0.51531  Biso   1.000  H
  H63      1.0000 0.10579  0.15495  0.55610  Biso   1.000  H
  N18      1.0000 0.97885  0.35246  0.58004  Biso   1.000  N
  H64      1.0000 0.97999  0.24773  0.58248  Biso   1.000  H
  C71      1.0000 0.56157  0.22651  0.14060  Biso   1.000  C
  H65      1.0000 0.53950  0.34223  0.09899  Biso   1.000  H
  H66      1.0000 0.62997  0.31629  0.11091  Biso   1.000  H
  C72      1.0000 0.12424  0.68449  0.20960  Biso   1.000  C
  H67      1.0000 0.18589  0.71291  0.25970  Biso   1.000  H
  H68      1.0000 0.22221  0.74362  0.19118  Biso   1.000  H
  C73      1.0000 0.28181  0.97243  0.51266  Biso   1.000  C
  C74      1.0000 0.88909  0.36935  0.59314  Biso   1.000  C
  N19      1.0000 0.47557  0.21748  0.15997  Biso   1.000  N
  H69      1.0000 0.59069  0.19574  0.17099  Biso   1.000  H
  H70      1.0000 0.58739  0.20703  0.10491  Biso   1.000  H
  N20      1.0000 0.08623  0.62657  0.25796  Biso   1.000  N
  H71      1.0000 0.14011  0.66634  0.17321  Biso   1.000  H
  H72      1.0000 0.08417  0.73273  0.20450  Biso   1.000  H
  C75      1.0000 0.26651  0.95613  0.46059  Biso   1.000  C
  H73      1.0000 0.34072  0.97725  0.50469  Biso   1.000  H
  H74      1.0000 0.27008  0.92890  0.54670  Biso   1.000  H
  C76      1.0000 0.86171  0.43684  0.54670  Biso   1.000  C
  H75      1.0000 0.86669  0.32362  0.59449  Biso   1.000  H
  H76      1.0000 0.86741  0.38185  0.63171  Biso   1.000  H
  C77      1.0000 0.45229  0.17654  0.21090  Biso   1.000  C
  C78      1.0000 0.07462  0.56846  0.24538  Biso   1.000  C
  N21      1.0000 0.29645  0.01157  0.40653  Biso   1.000  N
  H77      1.0000 0.20646  0.95784  0.46660  Biso   1.000  H
  H78      1.0000 0.29449  0.90372  0.45698  Biso   1.000  H
  N22      1.0000 0.88710  0.41876  0.48937  Biso   1.000  N
  H79      1.0000 0.88598  0.48174  0.54461  Biso   1.000  H
  H80      1.0000 0.80081  0.45073  0.55758  Biso   1.000  H
  C79      1.0000 0.36689  0.16063  0.23659  Biso   1.000  C
  H81      1.0000 0.49182  0.15503  0.23358  Biso   1.000  H
  C80      1.0000 0.03477  0.50656  0.28965  Biso   1.000  C
  H82      1.0000 0.09223  0.56470  0.20598  Biso   1.000  H
  C81      1.0000 0.24639  0.04351  0.37562  Biso   1.000  C
  C82      1.0000 0.93601  0.45966  0.45015  Biso   1.000  C
  C83      1.0000 0.30511  0.19232  0.20651  Biso   1.000  C
  C84      1.0000 0.34799  0.11291  0.29187  Biso   1.000  C
  C85      1.0000 0.02166  0.44542  0.27259  Biso   1.000  C
  C86      1.0000 0.00675  0.50941  0.34833  Biso   1.000  C
  C87      1.0000 0.26789  0.09592  0.31764  Biso   1.000  C
  H83      1.0000 0.19117  0.03354  0.39029  Biso   1.000  H
  C88      1.0000 0.96726  0.45116  0.38946  Biso   1.000  C
  H84      1.0000 0.95366  0.49815  0.46042  Biso   1.000  H
  C89      1.0000 0.22508  0.17572  0.23119  Biso   1.000  C
  H85      1.0000 0.31757  0.22550  0.16890  Biso   1.000  H
  H86      1.0000 0.38998  0.09154  0.31250  Biso   1.000  H
  C90      1.0000 0.98171  0.38650  0.31355  Biso   1.000  C
  H87      1.0000 0.03987  0.44341  0.23280  Biso   1.000  H
  H88      1.0000 0.01472  0.55132  0.36021  Biso   1.000  H
  C91      1.0000 0.20753  0.12719  0.28708  Biso   1.000  C
  C92      1.0000 0.95557  0.38942  0.37201  Biso   1.000  C
  C93      1.0000 0.15991  0.21031  0.19985  Biso   1.000  C
  C94      1.0000 0.96364  0.32469  0.29396  Biso   1.000  C
  H89      1.0000 0.15319  0.11563  0.30419  Biso   1.000  H
  H90      1.0000 0.92972  0.34925  0.40009  Biso   1.000  H
  N23      1.0000 0.08897  0.19143  0.21748  Biso   1.000  N
  H91      1.0000 0.17159  0.24859  0.16472  Biso   1.000  H
  N24      1.0000 0.97228  0.32920  0.24072  Biso   1.000  N
  H92      1.0000 0.94528  0.28074  0.32199  Biso   1.000  H
  C95      1.0000 0.02819  0.23184  0.18448  Biso   1.000  C
  C96      1.0000 0.95221  0.26709  0.22427  Biso   1.000  C
  H93      1.0000 0.05169  0.27262  0.15192  Biso   1.000  H
  H94      1.0000 0.01272  0.19561  0.16798  Biso   1.000  H
  H95      1.0000 0.93322  0.22733  0.25948  Biso   1.000  H
  H96      1.0000 0.90697  0.28722  0.20390  Biso   1.000  H
  C97      1.0000 0.66820  0.46135  0.37266  Biso   1.000  C
  N25      1.0000 0.63855  0.49783  0.32030  Biso   1.000  N
  H97      1.0000 0.63900  0.48993  0.40318  Biso   1.000  H
  H98      1.0000 0.65609  0.40815  0.38729  Biso   1.000  H
  C98      1.0000 0.76049  0.46002  0.36021  Biso   1.000  C
  C99      1.0000 0.58371  0.55693  0.32160  Biso   1.000  C
  N26      1.0000 0.77957  0.53805  0.34193  Biso   1.000  N
  H99      1.0000 0.78967  0.43231  0.32922  Biso   1.000  H
  H100     1.0000 0.78019  0.43225  0.39569  Biso   1.000  H
  C100     1.0000 0.54712  0.59695  0.27185  Biso   1.000  C
  H101     1.0000 0.56546  0.57615  0.35582  Biso   1.000  H
  C101     1.0000 0.82230  0.55713  0.29017  Biso   1.000  C
  C102     1.0000 0.57279  0.57004  0.22065  Biso   1.000  C
  C103     1.0000 0.48396  0.65933  0.27646  Biso   1.000  C
  C104     1.0000 0.84642  0.63412  0.26371  Biso   1.000  C
  H102     1.0000 0.83955  0.52014  0.26732  Biso   1.000  H
  C105     1.0000 0.53468  0.60412  0.17564  Biso   1.000  C
  H103     1.0000 0.61657  0.52801  0.21709  Biso   1.000  H
  C106     1.0000 0.44565  0.69452  0.23058  Biso   1.000  C
  H104     1.0000 0.46677  0.67814  0.31089  Biso   1.000  H
  C107     1.0000 0.89799  0.64676  0.20803  Biso   1.000  C
  C108     1.0000 0.81860  0.69393  0.29261  Biso   1.000  C
  C109     1.0000 0.55818  0.57109  0.12419  Biso   1.000  C
  C110     1.0000 0.47139  0.66686  0.18035  Biso   1.000  C
  C111     1.0000 0.37452  0.75697  0.23550  Biso   1.000  C
  C112     1.0000 0.92249  0.71890  0.18048  Biso   1.000  C
  H105     1.0000 0.91686  0.60620  0.18840  Biso   1.000  H
  C113     1.0000 0.84317  0.76549  0.26619  Biso   1.000  C
  H106     1.0000 0.78277  0.68575  0.33048  Biso   1.000  H
  N27      1.0000 0.51623  0.59102  0.08663  Biso   1.000  N
  H107     1.0000 0.60661  0.53370  0.11919  Biso   1.000  H
  H108     1.0000 0.44581  0.69084  0.14900  Biso   1.000  H
  N28      1.0000 0.33799  0.77741  0.28234  Biso   1.000  N
  H109     1.0000 0.35511  0.78325  0.20159  Biso   1.000  H
  C114     1.0000 0.97795  0.73286  0.12197  Biso   1.000  C
  C115     1.0000 0.89498  0.77740  0.20982  Biso   1.000  C
  C116     1.0000 0.81258  0.82811  0.29683  Biso   1.000  C
  C117     1.0000 0.54389  0.55218  0.03892  Biso   1.000  C
  C118     1.0000 0.26808  0.84031  0.27968  Biso   1.000  C
  N29      1.0000 0.00457  0.68367  0.09181  Biso   1.000  N
  H110     1.0000 0.99481  0.78190  0.10600  Biso   1.000  H
  H111     1.0000 0.91140  0.82633  0.19149  Biso   1.000  H
  N30      1.0000 0.83762  0.89267  0.27711  Biso   1.000  N
  H112     1.0000 0.77249  0.81993  0.33292  Biso   1.000  H
  H113     1.0000 0.59517  0.51522  0.04279  Biso   1.000  H
  H114     1.0000 0.50107  0.52332  0.04009  Biso   1.000  H
  C119     1.0000 0.56001  0.61166  0.98141  Biso   1.000  C
  H115     1.0000 0.25617  0.85374  0.24090  Biso   1.000  H
  H116     1.0000 0.21841  0.82391  0.30928  Biso   1.000  H
  C120     1.0000 0.28867  0.91018  0.29091  Biso   1.000  C
  C121     1.0000 0.06518  0.70531  0.03665  Biso   1.000  C
  C122     1.0000 0.80149  0.95081  0.31107  Biso   1.000  C
  N31      1.0000 0.63206  0.64531  0.97506  Biso   1.000  N
  H117     1.0000 0.51109  0.65255  0.98015  Biso   1.000  H
  H118     1.0000 0.56918  0.58717  0.94885  Biso   1.000  H
  N32      1.0000 0.35526  0.93981  0.24333  Biso   1.000  N
  H119     1.0000 0.30571  0.89552  0.32809  Biso   1.000  H
  H120     1.0000 0.23921  0.95043  0.29409  Biso   1.000  H
  C123     1.0000 0.04297  0.69138  0.98577  Biso   1.000  C
  H121     1.0000 0.06887  0.76043  0.02899  Biso   1.000  H
  H122     1.0000 0.12020  0.67533  0.04000  Biso   1.000  H
  C124     1.0000 0.76816  0.02536  0.27211  Biso   1.000  C
  H123     1.0000 0.75610  0.93223  0.34411  Biso   1.000  H
  H124     1.0000 0.84391  0.96033  0.32700  Biso   1.000  H
  C125     1.0000 0.62281  0.71779  0.96565  Biso   1.000  C
  C126     1.0000 0.41872  0.94674  0.25665  Biso   1.000  C
  N33      1.0000 0.96835  0.74364  0.97436  Biso   1.000  N
  H125     1.0000 0.03378  0.63757  0.99478  Biso   1.000  H
  H126     1.0000 0.08917  0.69960  0.95064  Biso   1.000  H
  N34      1.0000 0.69513  0.01536  0.25770  Biso   1.000  N
  H127     1.0000 0.81119  0.03934  0.23589  Biso   1.000  H
  H128     1.0000 0.75359  0.06754  0.29248  Biso   1.000  H
  C127     1.0000 0.69071  0.75842  0.95913  Biso   1.000  C
  H129     1.0000 0.57009  0.74691  0.96274  Biso   1.000  H
  C128     1.0000 0.48943  0.97753  0.21217  Biso   1.000  C
  H130     1.0000 0.42088  0.93172  0.29640  Biso   1.000  H
  C129     1.0000 0.90990  0.71297  0.97397  Biso   1.000  C
  C130     1.0000 0.69684  0.02357  0.20516  Biso   1.000  C
  C131     1.0000 0.76729  0.71867  0.96892  Biso   1.000  C
  C132     1.0000 0.67907  0.83770  0.94311  Biso   1.000  C
  C133     1.0000 0.55792  0.98480  0.22871  Biso   1.000  C
  C134     1.0000 0.48834  0.00095  0.15310  Biso   1.000  C
  C135     1.0000 0.83029  0.75778  0.96300  Biso   1.000  C
  H131     1.0000 0.91741  0.65858  0.98106  Biso   1.000  H
  C136     1.0000 0.62513  0.01460  0.18688  Biso   1.000  C
  H132     1.0000 0.74550  0.03593  0.17630  Biso   1.000  H
  H133     1.0000 0.77597  0.66410  0.97985  Biso   1.000  H
  H134     1.0000 0.62757  0.86516  0.93566  Biso   1.000  H
  C137     1.0000 0.74195  0.87860  0.93753  Biso   1.000  C
  H135     1.0000 0.55901  0.96941  0.26858  Biso   1.000  H
  H136     1.0000 0.44167  0.99672  0.14152  Biso   1.000  H
  C138     1.0000 0.55516  0.03041  0.11126  Biso   1.000  C
  C139     1.0000 0.81778  0.83777  0.94685  Biso   1.000  C
  C140     1.0000 0.62359  0.03625  0.12881  Biso   1.000  C
  C141     1.0000 0.72768  0.96309  0.92347  Biso   1.000  C
  C142     1.0000 0.54808  0.05613  0.05054  Biso   1.000  C
  H137     1.0000 0.86128  0.86471  0.94215  Biso   1.000  H
  H138     1.0000 0.66970  0.05536  0.10038  Biso   1.000  H
  H139     1.0000 0.77308  0.98937  0.91494  Biso   1.000  H
  N35      1.0000 0.65695  0.00165  0.92234  Biso   1.000  N
  N36      1.0000 0.59627  0.09658  0.00984  Biso   1.000  N
  H140     1.0000 0.50490  0.04154  0.04118  Biso   1.000  H
  C143     1.0000 0.64843  0.08539  0.90780  Biso   1.000  C
  C144     1.0000 0.57810  0.11837  0.95225  Biso   1.000  C
  H141     1.0000 0.70062  0.10060  0.90706  Biso   1.000  H
  H142     1.0000 0.63759  0.10642  0.86867  Biso   1.000  H
  H143     1.0000 0.52710  0.09944  0.95525  Biso   1.000  H
  H144     1.0000 0.56832  0.17515  0.93906  Biso   1.000  H
  C145     1.0000 0.33180  0.53870  0.62736  Biso   1.000  C
  C146     1.0000 0.23951  0.54003  0.63981  Biso   1.000  C
  N37      1.0000 0.36144  0.50228  0.67972  Biso   1.000  N
  H145     1.0000 0.36101  0.51013  0.59680  Biso   1.000  H
  H146     1.0000 0.34387  0.59192  0.61269  Biso   1.000  H
  N38      1.0000 0.22039  0.46202  0.65805  Biso   1.000  N
  H147     1.0000 0.21027  0.56774  0.67080  Biso   1.000  H
  H148     1.0000 0.21982  0.56782  0.60429  Biso   1.000  H
  C147     1.0000 0.41631  0.44314  0.67837  Biso   1.000  C
  C148     1.0000 0.17772  0.44294  0.70980  Biso   1.000  C
  C149     1.0000 0.45280  0.40315  0.72817  Biso   1.000  C
  H149     1.0000 0.43446  0.42396  0.64420  Biso   1.000  H
  C150     1.0000 0.15359  0.36594  0.73627  Biso   1.000  C
  H150     1.0000 0.16039  0.47992  0.73270  Biso   1.000  H
  C151     1.0000 0.42721  0.43001  0.77936  Biso   1.000  C
  C152     1.0000 0.51606  0.34074  0.72352  Biso   1.000  C
  C153     1.0000 0.18142  0.30614  0.70737  Biso   1.000  C
  C154     1.0000 0.10201  0.35329  0.79199  Biso   1.000  C
  C155     1.0000 0.46527  0.39594  0.82433  Biso   1.000  C
  H151     1.0000 0.38339  0.47205  0.78289  Biso   1.000  H
  C156     1.0000 0.55435  0.30553  0.76944  Biso   1.000  C
  H152     1.0000 0.53319  0.32192  0.68908  Biso   1.000  H
  C157     1.0000 0.15677  0.23456  0.73383  Biso   1.000  C
  H153     1.0000 0.21719  0.31431  0.66949  Biso   1.000  H
  C158     1.0000 0.07753  0.28117  0.81950  Biso   1.000  C
  H154     1.0000 0.08310  0.39387  0.81158  Biso   1.000  H
  C159     1.0000 0.52861  0.33319  0.81967  Biso   1.000  C
  C160     1.0000 0.44176  0.42896  0.87583  Biso   1.000  C
  C161     1.0000 0.62550  0.24310  0.76448  Biso   1.000  C
  C162     1.0000 0.18738  0.17195  0.70314  Biso   1.000  C
  C163     1.0000 0.10504  0.22267  0.79016  Biso   1.000  C
  C164     1.0000 0.02199  0.26719  0.87805  Biso   1.000  C
  H155     1.0000 0.55419  0.30922  0.85102  Biso   1.000  H
  N39      1.0000 0.48372  0.40910  0.91335  Biso   1.000  N
  H156     1.0000 0.39341  0.46637  0.88079  Biso   1.000  H
  N40      1.0000 0.66202  0.22266  0.71764  Biso   1.000  N
  H157     1.0000 0.64491  0.21682  0.79839  Biso   1.000  H
  N41      1.0000 0.16233  0.10739  0.72286  Biso   1.000  N
  H158     1.0000 0.22751  0.18012  0.66710  Biso   1.000  H
  H159     1.0000 0.08862  0.17374  0.80849  Biso   1.000  H
  H160     1.0000 0.00520  0.21816  0.89398  Biso   1.000  H
  N42      1.0000 0.99537  0.31638  0.90821  Biso   1.000  N
  C165     1.0000 0.45611  0.44787  0.96110  Biso   1.000  C
  C166     1.0000 0.73187  0.15976  0.72029  Biso   1.000  C
  C167     1.0000 0.19851  0.04925  0.68895  Biso   1.000  C
  C168     1.0000 0.93476  0.29474  0.96337  Biso   1.000  C
  C169     1.0000 0.44000  0.38841  0.01856  Biso   1.000  C
  H161     1.0000 0.40479  0.48484  0.95719  Biso   1.000  H
  H162     1.0000 0.49889  0.47674  0.95988  Biso   1.000  H
  C170     1.0000 0.71128  0.08988  0.70906  Biso   1.000  C
  H163     1.0000 0.74378  0.14633  0.75908  Biso   1.000  H
  H164     1.0000 0.78160  0.17615  0.69069  Biso   1.000  H
  H165     1.0000 0.24390  0.06782  0.65591  Biso   1.000  H
  H166     1.0000 0.15610  0.03973  0.67298  Biso   1.000  H
  C171     1.0000 0.23178  0.97469  0.72791  Biso   1.000  C
  H167     1.0000 0.93109  0.23964  0.97098  Biso   1.000  H
  H168     1.0000 0.87980  0.32473  0.96002  Biso   1.000  H
  C172     1.0000 0.95699  0.30869  0.01421  Biso   1.000  C
  N43      1.0000 0.36794  0.35474  0.02496  Biso   1.000  N
  H169     1.0000 0.48886  0.34751  0.01983  Biso   1.000  H
  H170     1.0000 0.43078  0.41289  0.05112  Biso   1.000  H
  N44      1.0000 0.64476  0.06026  0.75664  Biso   1.000  N
  H171     1.0000 0.69431  0.10455  0.67189  Biso   1.000  H
  H172     1.0000 0.76081  0.04963  0.70589  Biso   1.000  H
  N45      1.0000 0.30483  0.98470  0.74228  Biso   1.000  N
  H173     1.0000 0.18882  0.96073  0.76409  Biso   1.000  H
  H174     1.0000 0.24636  0.93253  0.70750  Biso   1.000  H
  H175     1.0000 0.96622  0.36248  0.00524  Biso   1.000  H
  H176     1.0000 0.91078  0.30047  0.04934  Biso   1.000  H
  N46      1.0000 0.03159  0.25642  0.02566  Biso   1.000  N
  C173     1.0000 0.37720  0.28228  0.03432  Biso   1.000  C
  C174     1.0000 0.58122  0.05331  0.74337  Biso   1.000  C
  C175     1.0000 0.30311  0.97650  0.79482  Biso   1.000  C
  C176     1.0000 0.09012  0.28709  0.02601  Biso   1.000  C
  C177     1.0000 0.30928  0.24169  0.04089  Biso   1.000  C
  H177     1.0000 0.42985  0.25321  0.03724  Biso   1.000  H
  C178     1.0000 0.51057  0.02252  0.78785  Biso   1.000  C
  H178     1.0000 0.57908  0.06834  0.70358  Biso   1.000  H
  C179     1.0000 0.37483  0.98546  0.81310  Biso   1.000  C
  H179     1.0000 0.25451  0.96413  0.82368  Biso   1.000  H
  C180     1.0000 0.16967  0.24229  0.03698  Biso   1.000  C
  H180     1.0000 0.08259  0.34147  0.01896  Biso   1.000  H
  C181     1.0000 0.23267  0.28139  0.03106  Biso   1.000  C
  C182     1.0000 0.32087  0.16235  0.05691  Biso   1.000  C
  C183     1.0000 0.44209  0.01526  0.77127  Biso   1.000  C
  C184     1.0000 0.51168  0.99912  0.84688  Biso   1.000  C
  C185     1.0000 0.37635  0.96380  0.87121  Biso   1.000  C
  C186     1.0000 0.18218  0.16229  0.05313  Biso   1.000  C
  H181     1.0000 0.22399  0.33596  0.02013  Biso   1.000  H
  C187     1.0000 0.25798  0.12151  0.06249  Biso   1.000  C
  H182     1.0000 0.37238  0.13489  0.06436  Biso   1.000  H
  H183     1.0000 0.44101  0.03066  0.73139  Biso   1.000  H
  C188     1.0000 0.44478  0.96971  0.88871  Biso   1.000  C
  H184     1.0000 0.55827  0.00333  0.85850  Biso   1.000  H
  H185     1.0000 0.33030  0.94477  0.89960  Biso   1.000  H
  H186     1.0000 0.13866  0.13541  0.05783  Biso   1.000  H
  C189     1.0000 0.27226  0.03697  0.07655  Biso   1.000  C
  C190     1.0000 0.45186  0.94399  0.94944  Biso   1.000  C
  N47      1.0000 0.34307  0.99841  0.07763  Biso   1.000  N
  H187     1.0000 0.22688  0.01070  0.08503  Biso   1.000  H
  N48      1.0000 0.40369  0.90348  0.99014  Biso   1.000  N
  H188     1.0000 0.49506  0.95852  0.95880  Biso   1.000  H
  C191     1.0000 0.35159  0.91467  0.09217  Biso   1.000  C
  C192     1.0000 0.42184  0.88168  0.04777  Biso   1.000  C
  H189     1.0000 0.29938  0.89945  0.09296  Biso   1.000  H
  H190     1.0000 0.36235  0.89363  0.13135  Biso   1.000  H
  H191     1.0000 0.47286  0.90062  0.04472  Biso   1.000  H
  H192     1.0000 0.43170  0.82492  0.06092  Biso   1.000  H
  Ne1      1.0000 0.21982  0.32697  0.35369  Biso   1.000  Ne
  He1      1.0000 0.18237  0.44126  0.41354  Biso   1.000  He
  He2      1.0000 0.11573  0.22644  0.40481  Biso   1.000  He
  He3      1.0000 0.36832  0.23662  0.37734  Biso   1.000  He
  He4      1.0000 0.23776  0.38516  0.22232  Biso   1.000  He
  Ar1      1.0000 0.22325  0.32275  0.35779  Biso   1.000  Ar
  Ne2      1.0000 0.67006  0.78530  0.14761  Biso   1.000  Ne
  He5      1.0000 0.62237  0.78282  0.26541  Biso   1.000  He
  He6      1.0000 0.75458  0.64869  0.12419  Biso   1.000  He
  He7      1.0000 0.81007  0.89479  0.08246  Biso   1.000  He
  He8      1.0000 0.56646  0.83300  0.09272  Biso   1.000  He
  Ar2      1.0000 0.67736  0.78832  0.14645  Biso   1.000  Ar
  Ne3      1.0000 0.32992  0.21476  0.85239  Biso   1.000  Ne
  He9      1.0000 0.20456  0.11816  0.91139  Biso   1.000  He
  He10     1.0000 0.44975  0.16191  0.91245  Biso   1.000  He
  He11     1.0000 0.24751  0.34744  0.87536  Biso   1.000  He
  He12     1.0000 0.37928  0.21727  0.73152  Biso   1.000  He
  Ar3      1.0000 0.31772  0.21116  0.86468  Biso   1.000  Ar
  Ne4      1.0000 0.78015  0.67309  0.64630  Biso   1.000  Ne
  He13     1.0000 0.76223  0.61488  0.77771  Biso   1.000  He
  He14     1.0000 0.63248  0.76295  0.62279  Biso   1.000  He
  He15     1.0000 0.88676  0.77565  0.59426  Biso   1.000  He
  He16     1.0000 0.81628  0.56322  0.58805  Biso   1.000  He
  Ar4      1.0000 0.77674  0.67775  0.64138  Biso   1.000  Ar
