data_image0
_cell_length_a       12.314
_cell_length_b       19.618
_cell_length_c       14.383
_cell_angle_alpha    90
_cell_angle_beta     97.75
_cell_angle_gamma    90

_symmetry_space_group_name_H-M    "P 1"
_symmetry_int_tables_number       1

loop_
  _symmetry_equiv_pos_as_xyz
  'x, y, z'

loop_
  _atom_site_label
  _atom_site_occupancy
  _atom_site_fract_x
  _atom_site_fract_y
  _atom_site_fract_z
  _atom_site_thermal_displace_type
  _atom_site_B_iso_or_equiv
  _atom_site_type_symbol
  C1       1.0000 0.51989  0.67504  0.30312  Biso   1.000  C
  N1       1.0000 0.49707  0.71470  0.37631  Biso   1.000  N
  N2       1.0000 0.63066  0.67148  0.30677  Biso   1.000  N
  O1       1.0000 0.45227  0.64935  0.24348  Biso   1.000  O
  C2       1.0000 0.38832  0.73754  0.38655  Biso   1.000  C
  C3       1.0000 0.59463  0.74105  0.43118  Biso   1.000  C
  C4       1.0000 0.68457  0.63019  0.24327  Biso   1.000  C
  C5       1.0000 0.68795  0.70869  0.38487  Biso   1.000  C
  N3       1.0000 0.34207  0.70583  0.46367  Biso   1.000  N
  H1       1.0000 0.38988  0.78652  0.39595  Biso   1.000  H
  H2       1.0000 0.34038  0.72831  0.32866  Biso   1.000  H
  N4       1.0000 0.61316  0.71475  0.52562  Biso   1.000  N
  H3       1.0000 0.59717  0.79101  0.42978  Biso   1.000  H
  N5       1.0000 0.72279  0.56520  0.28172  Biso   1.000  N
  H4       1.0000 0.74647  0.65542  0.22587  Biso   1.000  H
  H5       1.0000 0.63390  0.62239  0.18658  Biso   1.000  H
  N6       1.0000 0.74393  0.66628  0.45819  Biso   1.000  N
  H6       1.0000 0.73682  0.74330  0.36410  Biso   1.000  H
  C6       1.0000 0.26402  0.65705  0.44865  Biso   1.000  C
  C7       1.0000 0.35637  0.73127  0.55853  Biso   1.000  C
  C8       1.0000 0.56141  0.74228  0.60232  Biso   1.000  C
  C9       1.0000 0.70138  0.67362  0.54071  Biso   1.000  C
  C10      1.0000 0.67126  0.50601  0.24797  Biso   1.000  C
  C11      1.0000 0.83422  0.55255  0.32459  Biso   1.000  C
  C12      1.0000 0.85408  0.64089  0.45637  Biso   1.000  C
  N7       1.0000 0.22283  0.64650  0.53103  Biso   1.000  N
  O2       1.0000 0.23555  0.62738  0.37462  Biso   1.000  O
  C13      1.0000 0.27010  0.69120  0.60477  Biso   1.000  C
  N8       1.0000 0.45862  0.71113  0.61326  Biso   1.000  N
  H7       1.0000 0.34462  0.78061  0.56078  Biso   1.000  H
  H8       1.0000 0.54981  0.79080  0.59207  Biso   1.000  H
  H9       1.0000 0.61089  0.73672  0.66021  Biso   1.000  H
  O3       1.0000 0.73726  0.64660  0.61544  Biso   1.000  O
  N9       1.0000 0.73946  0.45259  0.27618  Biso   1.000  N
  O4       1.0000 0.58177  0.50224  0.20152  Biso   1.000  O
  C14      1.0000 0.84229  0.47426  0.32740  Biso   1.000  C
  N10      1.0000 0.85782  0.57243  0.42234  Biso   1.000  N
  H10      1.0000 0.88738  0.57228  0.28727  Biso   1.000  H
  H11      1.0000 0.89373  0.64293  0.51938  Biso   1.000  H
  H12      1.0000 0.89141  0.67061  0.41701  Biso   1.000  H
  C15      1.0000 0.12468  0.60745  0.53531  Biso   1.000  C
  N11      1.0000 0.33382  0.65746  0.68294  Biso   1.000  N
  H13      1.0000 0.21499  0.72158  0.62561  Biso   1.000  H
  C16      1.0000 0.44388  0.67071  0.68778  Biso   1.000  C
  C17      1.0000 0.71232  0.38337  0.24776  Biso   1.000  C
  N12      1.0000 0.85493  0.45963  0.42669  Biso   1.000  N
  H14      1.0000 0.90479  0.45769  0.29828  Biso   1.000  H
  C18      1.0000 0.86748  0.51697  0.48058  Biso   1.000  C
  N13      1.0000 0.14504  0.54042  0.57334  Biso   1.000  N
  H15      1.0000 0.07822  0.63182  0.57341  Biso   1.000  H
  H16      1.0000 0.08498  0.60353  0.47251  Biso   1.000  H
  C19      1.0000 0.28772  0.61663  0.75219  Biso   1.000  C
  O5       1.0000 0.51506  0.65088  0.74883  Biso   1.000  O
  N14      1.0000 0.66622  0.34254  0.31702  Biso   1.000  N
  H17      1.0000 0.66023  0.38460  0.19079  Biso   1.000  H
  H18      1.0000 0.77811  0.36110  0.23289  Biso   1.000  H
  C20      1.0000 0.87537  0.39260  0.46472  Biso   1.000  C
  O6       1.0000 0.88579  0.51881  0.56590  Biso   1.000  O
  C21      1.0000 0.13248  0.48303  0.51938  Biso   1.000  C
  C22      1.0000 0.15766  0.52579  0.67255  Biso   1.000  C
  N15      1.0000 0.26050  0.54741  0.72378  Biso   1.000  N
  H19      1.0000 0.33981  0.61540  0.80917  Biso   1.000  H
  H20      1.0000 0.22192  0.63890  0.76707  Biso   1.000  H
  C23      1.0000 0.55607  0.32934  0.31217  Biso   1.000  C
  C24      1.0000 0.72986  0.30880  0.39518  Biso   1.000  C
  N16      1.0000 0.77712  0.35350  0.46893  Biso   1.000  N
  H21      1.0000 0.92183  0.36818  0.42662  Biso   1.000  H
  H22      1.0000 0.91498  0.39652  0.52745  Biso   1.000  H
  N17      1.0000 0.14214  0.42757  0.57762  Biso   1.000  N
  O7       1.0000 0.11417  0.48119  0.43406  Biso   1.000  O
  C25      1.0000 0.16582  0.44750  0.67536  Biso   1.000  C
  H23      1.0000 0.09517  0.54231  0.70167  Biso   1.000  H
  C26      1.0000 0.32869  0.49399  0.75198  Biso   1.000  C
  N18      1.0000 0.54142  0.28887  0.38669  Biso   1.000  N
  O8       1.0000 0.48490  0.34912  0.25113  Biso   1.000  O
  C27      1.0000 0.64359  0.26873  0.44142  Biso   1.000  C
  H24      1.0000 0.78498  0.27842  0.37441  Biso   1.000  H
  C28      1.0000 0.73602  0.34295  0.55131  Biso   1.000  C
  C29      1.0000 0.14588  0.35911  0.54359  Biso   1.000  C
  N19      1.0000 0.27725  0.43480  0.71823  Biso   1.000  N
  H25      1.0000 0.11258  0.42772  0.71269  Biso   1.000  H
  O9       1.0000 0.41827  0.49776  0.79844  Biso   1.000  O
  C30      1.0000 0.43863  0.25772  0.39764  Biso   1.000  C
  N20      1.0000 0.65788  0.29422  0.53629  Biso   1.000  N
  H26      1.0000 0.65542  0.21939  0.43918  Biso   1.000  H
  O10      1.0000 0.76440  0.37262  0.62533  Biso   1.000  O
  N21      1.0000 0.25603  0.33372  0.54176  Biso   1.000  N
  H27      1.0000 0.10631  0.35712  0.48058  Biso   1.000  H
  H28      1.0000 0.10863  0.32939  0.58295  Biso   1.000  H
  C31      1.0000 0.31538  0.36981  0.75669  Biso   1.000  C
  N22      1.0000 0.38688  0.28525  0.47433  Biso   1.000  N
  H29      1.0000 0.45023  0.20920  0.40788  Biso   1.000  H
  H30      1.0000 0.38908  0.26328  0.33982  Biso   1.000  H
  C32      1.0000 0.61172  0.26246  0.61340  Biso   1.000  C
  C33      1.0000 0.29858  0.32643  0.45925  Biso   1.000  C
  C34      1.0000 0.31200  0.29137  0.61509  Biso   1.000  C
  N23      1.0000 0.36929  0.32852  0.69318  Biso   1.000  N
  H31      1.0000 0.25348  0.34458  0.77409  Biso   1.000  H
  H32      1.0000 0.36614  0.37761  0.81338  Biso   1.000  H
  C35      1.0000 0.40541  0.25895  0.56878  Biso   1.000  C
  N24      1.0000 0.50289  0.28530  0.62365  Biso   1.000  N
  H33      1.0000 0.61008  0.21348  0.60400  Biso   1.000  H
  H34      1.0000 0.65958  0.27169  0.67129  Biso   1.000  H
  O11      1.0000 0.26269  0.35340  0.38452  Biso   1.000  O
  H35      1.0000 0.26322  0.25670  0.63586  Biso   1.000  H
  C36      1.0000 0.48007  0.32501  0.69683  Biso   1.000  C
  H36      1.0000 0.40279  0.20899  0.57018  Biso   1.000  H
  O12      1.0000 0.54777  0.35065  0.75648  Biso   1.000  O
  C37      1.0000 0.44391  0.82934  0.18784  Biso   1.000  C
  N25      1.0000 0.45865  0.78887  0.11332  Biso   1.000  N
  N26      1.0000 0.45857  0.78887  0.11332  Biso   1.000  N
  N27      1.0000 0.33375  0.84254  0.18293  Biso   1.000  N
  N28      1.0000 0.33375  0.84259  0.18293  Biso   1.000  N
  O13      1.0000 0.51508  0.84912  0.24888  Biso   1.000  O
  O14      1.0000 0.51500  0.84912  0.24888  Biso   1.000  O
  C38      1.0000 0.35639  0.76873  0.05859  Biso   1.000  C
  C39      1.0000 0.44383  0.82934  0.18784  Biso   1.000  C
  C40      1.0000 0.56135  0.75772  0.10230  Biso   1.000  C
  C41      1.0000 0.27011  0.80885  0.10476  Biso   1.000  C
  C42      1.0000 0.27003  0.80885  0.10476  Biso   1.000  C
  C43      1.0000 0.28773  0.88337  0.25218  Biso   1.000  C
  C44      1.0000 0.28766  0.88337  0.25225  Biso   1.000  C
  N29      1.0000 0.34217  0.79422  0.96365  Biso   1.000  N
  H37      1.0000 0.34456  0.71939  0.06077  Biso   1.000  H
  H38      1.0000 0.34457  0.71939  0.06084  Biso   1.000  H
  N30      1.0000 0.61311  0.78525  0.02568  Biso   1.000  N
  H39      1.0000 0.54976  0.70920  0.09213  Biso   1.000  H
  H40      1.0000 0.61083  0.76333  0.16019  Biso   1.000  H
  N31      1.0000 0.22285  0.85350  0.03101  Biso   1.000  N
  H41      1.0000 0.21493  0.77842  0.12560  Biso   1.000  H
  N32      1.0000 0.26052  0.95259  0.22376  Biso   1.000  N
  H42      1.0000 0.33983  0.88460  0.30916  Biso   1.000  H
  N33      1.0000 0.26045  0.95259  0.22383  Biso   1.000  N
  H43      1.0000 0.33976  0.88460  0.30923  Biso   1.000  H
  H44      1.0000 0.22187  0.86110  0.26713  Biso   1.000  H
  C45      1.0000 0.26404  0.84295  0.94864  Biso   1.000  C
  C46      1.0000 0.38833  0.76246  0.88654  Biso   1.000  C
  C47      1.0000 0.26404  0.84300  0.94864  Biso   1.000  C
  C48      1.0000 0.59465  0.75895  0.93117  Biso   1.000  C
  C49      1.0000 0.70132  0.82638  0.04077  Biso   1.000  C
  C50      1.0000 0.70132  0.82643  0.04077  Biso   1.000  C
  C51      1.0000 0.12461  0.89260  0.03529  Biso   1.000  C
  C52      1.0000 0.15769  0.97421  0.17261  Biso   1.000  C
  C53      1.0000 0.15769  0.97426  0.17261  Biso   1.000  C
  C54      1.0000 0.32872  0.00601  0.25204  Biso   1.000  C
  C55      1.0000 0.32864  0.00601  0.25204  Biso   1.000  C
  O15      1.0000 0.23556  0.87262  0.87454  Biso   1.000  O
  N34      1.0000 0.49716  0.78530  0.87629  Biso   1.000  N
  H45      1.0000 0.34048  0.77169  0.82865  Biso   1.000  H
  N35      1.0000 0.49708  0.78530  0.87629  Biso   1.000  N
  H46      1.0000 0.34040  0.77169  0.82865  Biso   1.000  H
  H47      1.0000 0.38990  0.71353  0.89594  Biso   1.000  H
  H48      1.0000 0.59727  0.70899  0.92976  Biso   1.000  H
  C56      1.0000 0.68805  0.79131  0.88486  Biso   1.000  C
  C57      1.0000 0.68805  0.79137  0.88486  Biso   1.000  C
  O16      1.0000 0.73729  0.85340  0.11550  Biso   1.000  O
  N36      1.0000 0.74402  0.83372  0.95818  Biso   1.000  N
  H49      1.0000 0.08507  0.89652  0.97242  Biso   1.000  H
  H50      1.0000 0.07823  0.86818  0.07340  Biso   1.000  H
  N37      1.0000 0.14497  0.95958  0.07332  Biso   1.000  N
  H51      1.0000 0.07815  0.86818  0.07340  Biso   1.000  H
  H52      1.0000 0.07823  0.86823  0.07340  Biso   1.000  H
  N38      1.0000 0.14497  0.95963  0.07332  Biso   1.000  N
  H53      1.0000 0.07815  0.86823  0.07340  Biso   1.000  H
  H54      1.0000 0.09520  0.95769  0.20173  Biso   1.000  H
  C58      1.0000 0.16575  0.05255  0.17535  Biso   1.000  C
  O17      1.0000 0.41829  0.00224  0.29842  Biso   1.000  O
  N39      1.0000 0.27718  0.06520  0.21822  Biso   1.000  N
  O18      1.0000 0.41821  0.00224  0.29842  Biso   1.000  O
  C59      1.0000 0.51999  0.82501  0.80311  Biso   1.000  C
  C60      1.0000 0.51991  0.82501  0.80311  Biso   1.000  C
  N40      1.0000 0.63068  0.82852  0.80676  Biso   1.000  N
  H55      1.0000 0.73682  0.75670  0.86402  Biso   1.000  H
  C61      1.0000 0.85410  0.85911  0.95636  Biso   1.000  C
  C62      1.0000 0.13250  0.01697  0.01937  Biso   1.000  C
  C63      1.0000 0.13251  0.01697  0.01944  Biso   1.000  C
  N41      1.0000 0.14217  0.07243  0.07768  Biso   1.000  N
  N42      1.0000 0.14209  0.07243  0.07768  Biso   1.000  N
  H56      1.0000 0.11260  0.07233  0.21268  Biso   1.000  H
  C64      1.0000 0.31540  0.13019  0.25667  Biso   1.000  C
  C65      1.0000 0.31533  0.13019  0.25674  Biso   1.000  C
  O19      1.0000 0.45229  0.85065  0.74347  Biso   1.000  O
  C66      1.0000 0.68459  0.86981  0.74326  Biso   1.000  C
  N43      1.0000 0.85790  0.92757  0.92225  Biso   1.000  N
  H57      1.0000 0.89141  0.82939  0.91692  Biso   1.000  H
  N44      1.0000 0.85791  0.92757  0.92232  Biso   1.000  N
  H58      1.0000 0.89366  0.85712  0.01937  Biso   1.000  H
  H59      1.0000 0.89367  0.85712  0.01944  Biso   1.000  H
  O20      1.0000 0.11425  0.01881  0.93397  Biso   1.000  O
  C67      1.0000 0.14589  0.14089  0.04357  Biso   1.000  C
  N45      1.0000 0.36931  0.17148  0.19317  Biso   1.000  N
  H60      1.0000 0.25350  0.15542  0.27407  Biso   1.000  H
  H61      1.0000 0.36607  0.12239  0.31337  Biso   1.000  H
  N46      1.0000 0.72280  0.93480  0.78171  Biso   1.000  N
  H62      1.0000 0.74649  0.84458  0.72586  Biso   1.000  H
  H63      1.0000 0.63392  0.87761  0.68656  Biso   1.000  H
  H64      1.0000 0.74649  0.84463  0.72586  Biso   1.000  H
  C68      1.0000 0.83423  0.94745  0.82458  Biso   1.000  C
  C69      1.0000 0.83423  0.94750  0.82458  Biso   1.000  C
  C70      1.0000 0.86749  0.98303  0.98056  Biso   1.000  C
  H65      1.0000 0.10641  0.14288  0.98056  Biso   1.000  H
  H66      1.0000 0.10633  0.14288  0.98056  Biso   1.000  H
  H67      1.0000 0.10641  0.14293  0.98056  Biso   1.000  H
  H68      1.0000 0.10633  0.14293  0.98056  Biso   1.000  H
  H69      1.0000 0.10858  0.17061  0.08301  Biso   1.000  H
  N47      1.0000 0.25597  0.16628  0.04175  Biso   1.000  N
  C71      1.0000 0.31203  0.20869  0.11514  Biso   1.000  C
  C72      1.0000 0.31195  0.20869  0.11514  Biso   1.000  C
  C73      1.0000 0.48009  0.17504  0.19689  Biso   1.000  C
  C74      1.0000 0.67136  0.99399  0.74796  Biso   1.000  C
  H70      1.0000 0.88739  0.92772  0.78725  Biso   1.000  H
  C75      1.0000 0.84238  0.02579  0.82732  Biso   1.000  C
  C76      1.0000 0.84231  0.02579  0.82739  Biso   1.000  C
  O21      1.0000 0.88573  0.98119  0.06596  Biso   1.000  O
  O22      1.0000 0.88573  0.98124  0.06596  Biso   1.000  O
  N48      1.0000 0.85501  0.04042  0.92660  Biso   1.000  N
  C77      1.0000 0.29867  0.17362  0.95916  Biso   1.000  C
  C78      1.0000 0.40542  0.24105  0.06876  Biso   1.000  C
  H71      1.0000 0.26317  0.24330  0.13591  Biso   1.000  H
  C79      1.0000 0.40535  0.24105  0.06883  Biso   1.000  C
  O23      1.0000 0.54770  0.14935  0.25646  Biso   1.000  O
  N49      1.0000 0.50292  0.21470  0.12371  Biso   1.000  N
  O24      1.0000 0.58178  0.99776  0.70151  Biso   1.000  O
  N50      1.0000 0.73955  0.04741  0.77617  Biso   1.000  N
  H72      1.0000 0.90488  0.04231  0.79827  Biso   1.000  H
  H73      1.0000 0.90480  0.04231  0.79827  Biso   1.000  H
  C80      1.0000 0.87538  0.10745  0.96464  Biso   1.000  C
  N51      1.0000 0.38696  0.21475  0.97425  Biso   1.000  N
  O25      1.0000 0.26270  0.14660  0.88443  Biso   1.000  O
  N52      1.0000 0.38689  0.21475  0.97432  Biso   1.000  N
  H74      1.0000 0.40280  0.29101  0.07017  Biso   1.000  H
  H75      1.0000 0.40273  0.29101  0.07024  Biso   1.000  H
  C81      1.0000 0.61166  0.23754  0.11339  Biso   1.000  C
  C82      1.0000 0.71234  0.11663  0.74775  Biso   1.000  C
  H76      1.0000 0.92184  0.13182  0.92653  Biso   1.000  H
  N53      1.0000 0.77714  0.14650  0.96892  Biso   1.000  N
  H77      1.0000 0.91500  0.10348  0.02751  Biso   1.000  H
  H78      1.0000 0.91492  0.10348  0.02751  Biso   1.000  H
  H79      1.0000 0.91500  0.10353  0.02751  Biso   1.000  H
  H80      1.0000 0.91492  0.10353  0.02751  Biso   1.000  H
  C83      1.0000 0.43864  0.24228  0.89763  Biso   1.000  C
  H81      1.0000 0.61009  0.28652  0.10399  Biso   1.000  H
  H82      1.0000 0.65959  0.22831  0.17128  Biso   1.000  H
  N54      1.0000 0.65790  0.20583  0.03628  Biso   1.000  N
  N55      1.0000 0.65782  0.20583  0.03628  Biso   1.000  N
  H83      1.0000 0.66024  0.11540  0.69077  Biso   1.000  H
  H84      1.0000 0.77813  0.13890  0.73287  Biso   1.000  H
  N56      1.0000 0.66624  0.15746  0.81700  Biso   1.000  N
  C84      1.0000 0.72996  0.19120  0.89517  Biso   1.000  C
  C85      1.0000 0.73595  0.15705  0.05129  Biso   1.000  C
  N57      1.0000 0.54142  0.21113  0.88661  Biso   1.000  N
  H85      1.0000 0.45023  0.29080  0.90780  Biso   1.000  H
  H86      1.0000 0.38916  0.23672  0.83974  Biso   1.000  H
  N58      1.0000 0.54143  0.21113  0.88668  Biso   1.000  N
  H87      1.0000 0.45024  0.29080  0.90787  Biso   1.000  H
  C86      1.0000 0.64368  0.23127  0.94134  Biso   1.000  C
  C87      1.0000 0.64361  0.23127  0.94141  Biso   1.000  C
  C88      1.0000 0.55616  0.17071  0.81209  Biso   1.000  C
  H88      1.0000 0.78506  0.22158  0.87433  Biso   1.000  H
  H89      1.0000 0.78506  0.22163  0.87433  Biso   1.000  H
  O26      1.0000 0.76435  0.12738  0.12539  Biso   1.000  O
  H90      1.0000 0.65543  0.28061  0.93916  Biso   1.000  H
  O27      1.0000 0.48500  0.15088  0.75112  Biso   1.000  O
  Ne1      1.0000 0.49999  0.50001  0.49998  Biso   1.000  Ne
  He1      1.0000 0.63488  0.50627  0.69015  Biso   1.000  He
  He2      1.0000 0.36976  0.49398  0.31549  Biso   1.000  He
  Ar1      1.0000 0.50000  0.50001  0.49998  Biso   1.000  Ar
  Ne2      1.0000 0.48874  0.99434  0.01661  Biso   1.000  Ne
  He3      1.0000 0.64229  0.99332  0.19925  Biso   1.000  He
  He4      1.0000 0.34334  0.00742  0.78301  Biso   1.000  He
  Ar2      1.0000 0.49752  0.99981  0.01611  Biso   1.000  Ar
