data_image0
_cell_length_a       12.109
_cell_length_b       12.2
_cell_length_c       12.804
_cell_angle_alpha    106.92
_cell_angle_beta     112.57
_cell_angle_gamma    92.56

_symmetry_space_group_name_H-M    "P 1"
_symmetry_int_tables_number       1

loop_
  _symmetry_equiv_pos_as_xyz
  'x, y, z'

loop_
  _atom_site_label
  _atom_site_occupancy
  _atom_site_fract_x
  _atom_site_fract_y
  _atom_site_fract_z
  _atom_site_thermal_displace_type
  _atom_site_B_iso_or_equiv
  _atom_site_type_symbol
  O1       1.0000 0.40544  0.07608  0.69472  Biso   1.000  O
  C1       1.0000 0.36778  0.15324  0.75026  Biso   1.000  C
  N1       1.0000 0.34877  0.15687  0.84933  Biso   1.000  N
  N2       1.0000 0.33659  0.25121  0.72218  Biso   1.000  N
  O2       1.0000 0.40552  0.07608  0.69472  Biso   1.000  O
  C2       1.0000 0.38334  0.07399  0.91134  Biso   1.000  C
  C3       1.0000 0.38342  0.07399  0.91134  Biso   1.000  C
  C4       1.0000 0.31570  0.26597  0.90165  Biso   1.000  C
  C5       1.0000 0.30863  0.33186  0.81281  Biso   1.000  C
  C6       1.0000 0.30871  0.33186  0.81281  Biso   1.000  C
  C7       1.0000 0.37351  0.28785  0.64079  Biso   1.000  C
  C8       1.0000 0.37359  0.28785  0.64079  Biso   1.000  C
  N3       1.0000 0.28217  0.98844  0.88684  Biso   1.000  N
  H1       1.0000 0.44336  0.03320  0.88774  Biso   1.000  H
  H2       1.0000 0.42348  0.11646  0.99883  Biso   1.000  H
  H3       1.0000 0.44344  0.03320  0.88774  Biso   1.000  H
  N4       1.0000 0.19435  0.25685  0.89707  Biso   1.000  N
  H4       1.0000 0.37812  0.30971  0.98447  Biso   1.000  H
  N5       1.0000 0.18480  0.35139  0.77028  Biso   1.000  N
  H5       1.0000 0.36797  0.40682  0.85346  Biso   1.000  H
  H6       1.0000 0.36797  0.40674  0.85346  Biso   1.000  H
  H7       1.0000 0.36805  0.40674  0.85346  Biso   1.000  H
  N6       1.0000 0.27264  0.28508  0.53275  Biso   1.000  N
  H8       1.0000 0.42047  0.36813  0.68269  Biso   1.000  H
  H9       1.0000 0.42788  0.23653  0.61889  Biso   1.000  H
  N7       1.0000 0.27272  0.28508  0.53275  Biso   1.000  N
  C9       1.0000 0.25160  0.88088  0.80105  Biso   1.000  C
  C10      1.0000 0.20386  0.00283  0.94947  Biso   1.000  C
  C11      1.0000 0.20394  0.00283  0.94947  Biso   1.000  C
  C12      1.0000 0.15851  0.21009  0.97227  Biso   1.000  C
  C13      1.0000 0.12159  0.31424  0.82681  Biso   1.000  C
  C14      1.0000 0.14457  0.42894  0.70324  Biso   1.000  C
  C15      1.0000 0.24912  0.20415  0.42354  Biso   1.000  C
  C16      1.0000 0.24920  0.20415  0.42354  Biso   1.000  C
  C17      1.0000 0.19914  0.37455  0.52324  Biso   1.000  C
  C18      1.0000 0.19922  0.37455  0.52324  Biso   1.000  C
  N8       1.0000 0.14930  0.82287  0.79370  Biso   1.000  N
  O3       1.0000 0.30892  0.84359  0.74192  Biso   1.000  O
  O4       1.0000 0.30900  0.84359  0.74192  Biso   1.000  O
  C19      1.0000 0.11574  0.88348  0.89007  Biso   1.000  C
  N9       1.0000 0.12109  0.08496  0.92668  Biso   1.000  N
  H10      1.0000 0.25115  0.01924  0.03732  Biso   1.000  H
  H11      1.0000 0.09056  0.24657  0.98330  Biso   1.000  H
  H12      1.0000 0.22739  0.23200  0.05204  Biso   1.000  H
  O5       1.0000 0.02004  0.33094  0.81730  Biso   1.000  O
  N10      1.0000 0.11158  0.37646  0.57546  Biso   1.000  N
  H13      1.0000 0.21015  0.49716  0.73600  Biso   1.000  H
  H14      1.0000 0.07347  0.45753  0.71473  Biso   1.000  H
  N11      1.0000 0.14991  0.22516  0.33875  Biso   1.000  N
  N12      1.0000 0.15000  0.22516  0.33875  Biso   1.000  N
  O6       1.0000 0.30674  0.12664  0.40542  Biso   1.000  O
  C20      1.0000 0.11718  0.33588  0.38621  Biso   1.000  C
  H15      1.0000 0.25029  0.45309  0.55267  Biso   1.000  H
  C21      1.0000 0.11107  0.69911  0.72828  Biso   1.000  C
  N13      1.0000 0.99640  0.91478  0.84996  Biso   1.000  N
  H16      1.0000 0.12693  0.84056  0.94804  Biso   1.000  H
  C22      1.0000 0.00078  0.03258  0.87392  Biso   1.000  C
  C23      1.0000 0.99449  0.36122  0.49174  Biso   1.000  C
  C24      1.0000 0.11464  0.16777  0.21078  Biso   1.000  C
  N14      1.0000 0.99668  0.32944  0.38101  Biso   1.000  N
  H17      1.0000 0.13371  0.39352  0.35014  Biso   1.000  H
  H18      1.0000 0.13379  0.39352  0.35014  Biso   1.000  H
  N15      1.0000 0.00353  0.67069  0.61907  Biso   1.000  N
  H19      1.0000 0.17786  0.66825  0.70926  Biso   1.000  H
  H20      1.0000 0.09631  0.65975  0.78050  Biso   1.000  H
  C25      1.0000 0.88545  0.83225  0.78921  Biso   1.000  C
  O7       1.0000 0.91408  0.08234  0.85480  Biso   1.000  O
  O8       1.0000 0.90506  0.37637  0.51265  Biso   1.000  O
  N16      1.0000 0.00373  0.08534  0.15012  Biso   1.000  N
  H21      1.0000 0.18074  0.12745  0.20029  Biso   1.000  H
  H22      1.0000 0.10678  0.22810  0.17211  Biso   1.000  H
  H23      1.0000 0.10686  0.22810  0.17211  Biso   1.000  H
  C26      1.0000 0.88906  0.30102  0.27180  Biso   1.000  C
  C27      1.0000 0.00564  0.63882  0.50834  Biso   1.000  C
  C28      1.0000 0.88296  0.66425  0.61387  Biso   1.000  C
  N17      1.0000 0.85014  0.77497  0.66134  Biso   1.000  N
  N18      1.0000 0.85022  0.77497  0.66134  Biso   1.000  N
  H24      1.0000 0.81935  0.87265  0.79971  Biso   1.000  H
  H25      1.0000 0.89327  0.77195  0.82797  Biso   1.000  H
  C29      1.0000 0.99932  0.96752  0.12608  Biso   1.000  C
  C30      1.0000 0.88448  0.11665  0.11001  Biso   1.000  C
  N19      1.0000 0.85080  0.17723  0.20630  Biso   1.000  N
  N20      1.0000 0.85088  0.17723  0.20630  Biso   1.000  N
  H26      1.0000 0.90379  0.34035  0.21949  Biso   1.000  H
  H27      1.0000 0.82228  0.33188  0.29083  Biso   1.000  H
  H28      1.0000 0.90388  0.34035  0.21949  Biso   1.000  H
  N21      1.0000 0.88848  0.62367  0.42462  Biso   1.000  N
  N22      1.0000 0.88856  0.62367  0.42462  Biso   1.000  N
  O9       1.0000 0.09508  0.62376  0.48743  Biso   1.000  O
  C31      1.0000 0.80100  0.62558  0.47685  Biso   1.000  C
  H29      1.0000 0.86634  0.60652  0.64994  Biso   1.000  H
  C32      1.0000 0.75093  0.79598  0.57654  Biso   1.000  C
  C33      1.0000 0.75102  0.79598  0.57654  Biso   1.000  C
  N23      1.0000 0.87896  0.91509  0.07340  Biso   1.000  N
  N24      1.0000 0.87905  0.91509  0.07340  Biso   1.000  N
  O10      1.0000 0.08602  0.91768  0.14519  Biso   1.000  O
  C34      1.0000 0.79620  0.99730  0.05061  Biso   1.000  C
  H30      1.0000 0.87328  0.15948  0.05205  Biso   1.000  H
  C35      1.0000 0.74853  0.11924  0.19903  Biso   1.000  C
  C36      1.0000 0.85556  0.57118  0.29684  Biso   1.000  C
  N25      1.0000 0.72742  0.71505  0.46733  Biso   1.000  N
  H31      1.0000 0.74984  0.54704  0.44741  Biso   1.000  H
  N26      1.0000 0.72750  0.71505  0.46733  Biso   1.000  N
  O11      1.0000 0.69332  0.87348  0.59467  Biso   1.000  O
  O12      1.0000 0.69340  0.87348  0.59467  Biso   1.000  O
  C37      1.0000 0.84162  0.79004  0.02782  Biso   1.000  C
  N27      1.0000 0.71788  0.01161  0.11324  Biso   1.000  N
  N28      1.0000 0.71796  0.01161  0.11324  Biso   1.000  N
  H32      1.0000 0.74895  0.98078  0.96267  Biso   1.000  H
  O13      1.0000 0.69109  0.15651  0.25807  Biso   1.000  O
  N29      1.0000 0.81533  0.64874  0.22981  Biso   1.000  N
  H33      1.0000 0.92666  0.54252  0.28535  Biso   1.000  H
  H34      1.0000 0.78994  0.50294  0.26400  Biso   1.000  H
  C38      1.0000 0.62651  0.71225  0.35920  Biso   1.000  C
  N30      1.0000 0.80587  0.74319  0.10301  Biso   1.000  N
  H35      1.0000 0.77263  0.76810  0.94795  Biso   1.000  H
  H36      1.0000 0.90954  0.75353  0.01669  Biso   1.000  H
  C39      1.0000 0.61671  0.92613  0.08875  Biso   1.000  C
  C40      1.0000 0.69139  0.66824  0.18718  Biso   1.000  C
  C41      1.0000 0.87850  0.68577  0.17319  Biso   1.000  C
  N31      1.0000 0.66354  0.74892  0.27791  Biso   1.000  N
  H37      1.0000 0.57221  0.76357  0.38110  Biso   1.000  H
  H38      1.0000 0.57221  0.76349  0.38110  Biso   1.000  H
  H39      1.0000 0.57962  0.63188  0.31730  Biso   1.000  H
  C42      1.0000 0.68443  0.73408  0.09844  Biso   1.000  C
  N32      1.0000 0.65124  0.84323  0.15066  Biso   1.000  N
  N33      1.0000 0.65133  0.84323  0.15066  Biso   1.000  N
  H40      1.0000 0.55669  0.96693  0.11235  Biso   1.000  H
  H41      1.0000 0.57653  0.88364  0.00117  Biso   1.000  H
  H42      1.0000 0.55678  0.96693  0.11235  Biso   1.000  H
  H43      1.0000 0.57661  0.88355  0.00117  Biso   1.000  H
  H44      1.0000 0.57662  0.88364  0.00117  Biso   1.000  H
  O14      1.0000 0.98005  0.66908  0.18270  Biso   1.000  O
  O15      1.0000 0.98005  0.66916  0.18270  Biso   1.000  O
  H45      1.0000 0.63216  0.59331  0.14663  Biso   1.000  H
  C43      1.0000 0.63227  0.84681  0.24982  Biso   1.000  C
  C44      1.0000 0.63235  0.84681  0.24982  Biso   1.000  C
  H46      1.0000 0.62201  0.69042  0.01561  Biso   1.000  H
  O16      1.0000 0.59458  0.92402  0.30527  Biso   1.000  O
  O17      1.0000 0.59466  0.92402  0.30527  Biso   1.000  O
  Ne1      1.0000 0.99880  0.99738  0.49295  Biso   1.000  Ne
  He1      1.0000 0.79048  0.13070  0.57080  Biso   1.000  He
  He2      1.0000 0.20846  0.85877  0.43916  Biso   1.000  He
  Ar1      1.0000 0.00198  0.99868  0.49506  Biso   1.000  Ar
