data_image0
_cell_length_a       11.019
_cell_length_b       13.62
_cell_length_c       19.945
_cell_angle_alpha    107.46
_cell_angle_beta     94.43
_cell_angle_gamma    102.77

_symmetry_space_group_name_H-M    "P 1"
_symmetry_int_tables_number       1

loop_
  _symmetry_equiv_pos_as_xyz
  'x, y, z'

loop_
  _atom_site_label
  _atom_site_occupancy
  _atom_site_fract_x
  _atom_site_fract_y
  _atom_site_fract_z
  _atom_site_thermal_displace_type
  _atom_site_B_iso_or_equiv
  _atom_site_type_symbol
  C1       1.0000 0.50694  0.21407  0.81625  Biso   1.000  C
  C2       1.0000 0.52689  0.12487  0.76784  Biso   1.000  C
  H1       1.0000 0.47919  0.26555  0.80018  Biso   1.000  H
  C3       1.0000 0.52756  0.22798  0.88791  Biso   1.000  C
  C4       1.0000 0.56728  0.04804  0.79013  Biso   1.000  C
  H2       1.0000 0.51291  0.11555  0.71853  Biso   1.000  H
  C5       1.0000 0.56888  0.15366  0.91131  Biso   1.000  C
  O1       1.0000 0.49865  0.31547  0.93403  Biso   1.000  O
  C6       1.0000 0.58088  0.94869  0.73943  Biso   1.000  C
  C7       1.0000 0.58899  0.06482  0.86258  Biso   1.000  C
  H3       1.0000 0.58351  0.16363  0.96073  Biso   1.000  H
  C8       1.0000 0.57258  0.36893  0.00004  Biso   1.000  C
  N1       1.0000 0.54161  0.92046  0.67405  Biso   1.000  N
  H4       1.0000 0.62092  0.90428  0.75688  Biso   1.000  H
  H5       1.0000 0.61831  0.01428  0.87902  Biso   1.000  H
  C9       1.0000 0.51342  0.42013  0.05388  Biso   1.000  C
  C10      1.0000 0.70036  0.37823  0.01169  Biso   1.000  C
  C11      1.0000 0.55450  0.81856  0.62788  Biso   1.000  C
  H6       1.0000 0.42559  0.41377  0.04563  Biso   1.000  H
  C12      1.0000 0.58318  0.48041  0.11952  Biso   1.000  C
  H7       1.0000 0.74065  0.34304  0.97462  Biso   1.000  H
  C13      1.0000 0.76943  0.43879  0.07776  Biso   1.000  C
  C14      1.0000 0.64516  0.83551  0.57655  Biso   1.000  C
  H8       1.0000 0.47105  0.77478  0.60080  Biso   1.000  H
  H9       1.0000 0.58566  0.77970  0.65730  Biso   1.000  H
  H10      1.0000 0.54244  0.51503  0.15650  Biso   1.000  H
  C15      1.0000 0.71315  0.49139  0.13261  Biso   1.000  C
  H11      1.0000 0.85728  0.44470  0.08569  Biso   1.000  H
  N2       1.0000 0.77669  0.86835  0.61128  Biso   1.000  N
  H12      1.0000 0.63149  0.76852  0.53633  Biso   1.000  H
  H13      1.0000 0.62794  0.89070  0.55713  Biso   1.000  H
  C16      1.0000 0.79177  0.55955  0.20081  Biso   1.000  C
  C17      1.0000 0.85703  0.93410  0.57772  Biso   1.000  C
  C18      1.0000 0.82476  0.77756  0.61453  Biso   1.000  C
  H14      1.0000 0.87960  0.56507  0.20549  Biso   1.000  H
  N3       1.0000 0.74940  0.61083  0.25326  Biso   1.000  N
  C19      1.0000 0.85992  0.05124  0.60963  Biso   1.000  C
  H15      1.0000 0.82515  0.90958  0.52611  Biso   1.000  H
  H16      1.0000 0.94360  0.92536  0.58373  Biso   1.000  H
  H17      1.0000 0.86117  0.75077  0.57091  Biso   1.000  H
  H18      1.0000 0.75425  0.71955  0.61628  Biso   1.000  H
  C20      1.0000 0.92442  0.80774  0.67895  Biso   1.000  C
  C21      1.0000 0.84123  0.68089  0.31550  Biso   1.000  C
  H19      1.0000 0.89486  0.09037  0.57798  Biso   1.000  H
  H20      1.0000 0.77312  0.05868  0.61362  Biso   1.000  H
  N4       1.0000 0.93685  0.09699  0.67975  Biso   1.000  N
  H21      1.0000 0.97613  0.75561  0.67102  Biso   1.000  H
  H22      1.0000 0.98055  0.87874  0.68592  Biso   1.000  H
  N5       1.0000 0.86648  0.80987  0.74268  Biso   1.000  N
  C22      1.0000 0.81248  0.65363  0.38194  Biso   1.000  C
  H23      1.0000 0.83983  0.75579  0.32273  Biso   1.000  H
  H24      1.0000 0.92678  0.67387  0.30699  Biso   1.000  H
  C23      1.0000 0.89002  0.14624  0.73082  Biso   1.000  C
  C24      1.0000 0.89306  0.89547  0.79343  Biso   1.000  C
  N6       1.0000 0.84880  0.55801  0.38455  Biso   1.000  N
  H25      1.0000 0.85765  0.71418  0.42439  Biso   1.000  H
  H26      1.0000 0.72103  0.64292  0.38359  Biso   1.000  H
  H27      1.0000 0.80483  0.14879  0.72278  Biso   1.000  H
  C25      1.0000 0.96255  0.20030  0.80252  Biso   1.000  C
  H28      1.0000 0.94784  0.95603  0.78779  Biso   1.000  H
  C26      1.0000 0.84409  0.90773  0.86125  Biso   1.000  C
  C27      1.0000 0.97852  0.58169  0.41902  Biso   1.000  C
  C28      1.0000 0.76109  0.49548  0.41684  Biso   1.000  C
  C29      1.0000 0.91272  0.26523  0.85535  Biso   1.000  C
  C30      1.0000 0.08489  0.19247  0.81918  Biso   1.000  C
  C31      1.0000 0.88693  0.00203  0.91716  Biso   1.000  C
  C32      1.0000 0.75735  0.82450  0.87211  Biso   1.000  C
  C33      1.0000 0.03686  0.48863  0.39109  Biso   1.000  C
  H29      1.0000 0.98037  0.59841  0.47099  Biso   1.000  H
  H30      1.0000 0.02937  0.64529  0.41051  Biso   1.000  H
  C34      1.0000 0.64728  0.42306  0.36364  Biso   1.000  C
  H31      1.0000 0.73283  0.54442  0.45663  Biso   1.000  H
  H32      1.0000 0.80496  0.45189  0.43674  Biso   1.000  H
  H33      1.0000 0.82932  0.27099  0.84540  Biso   1.000  H
  C35      1.0000 0.98259  0.32174  0.92206  Biso   1.000  C
  C36      1.0000 0.15430  0.24666  0.88578  Biso   1.000  C
  H34      1.0000 0.12098  0.14900  0.78380  Biso   1.000  H
  C37      1.0000 0.84677  0.01388  0.98260  Biso   1.000  C
  H35      1.0000 0.94497  0.06004  0.91062  Biso   1.000  H
  H36      1.0000 0.72583  0.75906  0.83428  Biso   1.000  H
  C38      1.0000 0.71649  0.83609  0.93701  Biso   1.000  C
  N7       1.0000 0.07833  0.48700  0.32284  Biso   1.000  N
  H37      1.0000 0.97413  0.42093  0.38503  Biso   1.000  H
  H38      1.0000 0.10969  0.49521  0.42599  Biso   1.000  H
  N8       1.0000 0.67910  0.32997  0.31747  Biso   1.000  N
  H39      1.0000 0.57886  0.39997  0.38928  Biso   1.000  H
  H40      1.0000 0.61662  0.46258  0.33449  Biso   1.000  H
  H41      1.0000 0.94842  0.36737  0.95722  Biso   1.000  H
  C39      1.0000 0.10256  0.31092  0.93674  Biso   1.000  C
  H42      1.0000 0.23706  0.23989  0.89642  Biso   1.000  H
  C40      1.0000 0.76176  0.93077  0.99201  Biso   1.000  C
  H43      1.0000 0.87805  0.07900  0.02068  Biso   1.000  H
  H44      1.0000 0.65735  0.77888  0.94381  Biso   1.000  H
  C41      1.0000 0.01680  0.41519  0.26720  Biso   1.000  C
  C42      1.0000 0.65058  0.30582  0.25150  Biso   1.000  C
  O2       1.0000 0.17961  0.36950  0.00137  Biso   1.000  O
  O3       1.0000 0.72469  0.93429  0.05750  Biso   1.000  O
  C43      1.0000 0.05370  0.40597  0.19666  Biso   1.000  C
  H45      1.0000 0.94431  0.36552  0.27092  Biso   1.000  H
  C44      1.0000 0.67385  0.21102  0.20012  Biso   1.000  C
  H46      1.0000 0.61207  0.35073  0.23368  Biso   1.000  H
  C45      1.0000 0.13010  0.38010  0.06409  Biso   1.000  C
  C46      1.0000 0.71207  0.02975  0.10330  Biso   1.000  C
  C47      1.0000 0.99965  0.31449  0.13942  Biso   1.000  C
  C48      1.0000 0.14546  0.48549  0.18543  Biso   1.000  C
  C49      1.0000 0.63577  0.18564  0.12793  Biso   1.000  C
  C50      1.0000 0.73212  0.14294  0.22288  Biso   1.000  C
  C51      1.0000 0.03711  0.30138  0.07340  Biso   1.000  C
  C52      1.0000 0.18398  0.47299  0.11990  Biso   1.000  C
  C53      1.0000 0.65369  0.09586  0.07973  Biso   1.000  C
  C54      1.0000 0.75150  0.05329  0.17511  Biso   1.000  C
  H47      1.0000 0.93562  0.25999  0.14559  Biso   1.000  H
  H48      1.0000 0.18202  0.54961  0.22363  Biso   1.000  H
  H49      1.0000 0.59642  0.23114  0.11133  Biso   1.000  H
  H50      1.0000 0.75897  0.15879  0.27230  Biso   1.000  H
  H51      1.0000 0.99900  0.23846  0.03473  Biso   1.000  H
  H52      1.0000 0.24717  0.52769  0.11319  Biso   1.000  H
  H53      1.0000 0.62601  0.07924  0.03042  Biso   1.000  H
  H54      1.0000 0.79181  0.00789  0.19129  Biso   1.000  H
  C55      1.0000 0.49315  0.78588  0.18379  Biso   1.000  C
  C56      1.0000 0.47310  0.87506  0.23215  Biso   1.000  C
  H55      1.0000 0.52080  0.73438  0.19981  Biso   1.000  H
  C57      1.0000 0.47252  0.77195  0.11209  Biso   1.000  C
  C58      1.0000 0.43271  0.95189  0.20986  Biso   1.000  C
  H56      1.0000 0.48709  0.88441  0.28152  Biso   1.000  H
  C59      1.0000 0.43112  0.84630  0.08873  Biso   1.000  C
  O4       1.0000 0.50143  0.68446  0.06596  Biso   1.000  O
  C60      1.0000 0.41100  0.93511  0.13741  Biso   1.000  C
  C61      1.0000 0.41911  0.05124  0.26056  Biso   1.000  C
  H57      1.0000 0.41649  0.83632  0.03931  Biso   1.000  H
  C62      1.0000 0.42750  0.63100  0.99995  Biso   1.000  C
  H58      1.0000 0.38169  0.98568  0.12102  Biso   1.000  H
  H59      1.0000 0.37916  0.09565  0.24311  Biso   1.000  H
  N9       1.0000 0.45847  0.07947  0.32594  Biso   1.000  N
  C63      1.0000 0.48657  0.57980  0.94611  Biso   1.000  C
  C64      1.0000 0.29972  0.62170  0.98830  Biso   1.000  C
  C65      1.0000 0.44558  0.18137  0.37211  Biso   1.000  C
  H60      1.0000 0.57453  0.58626  0.95441  Biso   1.000  H
  C66      1.0000 0.41690  0.51952  0.88047  Biso   1.000  C
  H61      1.0000 0.25943  0.65689  0.02537  Biso   1.000  H
  C67      1.0000 0.23057  0.56116  0.92228  Biso   1.000  C
  C68      1.0000 0.35485  0.16450  0.42345  Biso   1.000  C
  H62      1.0000 0.52894  0.22515  0.39919  Biso   1.000  H
  H63      1.0000 0.41433  0.22023  0.34269  Biso   1.000  H
  H64      1.0000 0.45755  0.48490  0.84350  Biso   1.000  H
  C69      1.0000 0.28684  0.50854  0.86738  Biso   1.000  C
  H65      1.0000 0.14280  0.55523  0.91430  Biso   1.000  H
  H66      1.0000 0.36852  0.23144  0.46372  Biso   1.000  H
  H67      1.0000 0.37216  0.10926  0.44292  Biso   1.000  H
  N10      1.0000 0.22329  0.13158  0.38871  Biso   1.000  N
  C70      1.0000 0.20824  0.44046  0.79918  Biso   1.000  C
  C71      1.0000 0.17524  0.22239  0.38552  Biso   1.000  C
  C72      1.0000 0.14306  0.06586  0.42233  Biso   1.000  C
  H68      1.0000 0.12039  0.43486  0.79450  Biso   1.000  H
  N11      1.0000 0.25068  0.38910  0.74673  Biso   1.000  N
  H69      1.0000 0.13882  0.24916  0.42908  Biso   1.000  H
  H70      1.0000 0.24574  0.28038  0.38371  Biso   1.000  H
  C73      1.0000 0.07566  0.19219  0.32104  Biso   1.000  C
  C74      1.0000 0.14016  0.94869  0.39036  Biso   1.000  C
  H71      1.0000 0.17486  0.09037  0.47393  Biso   1.000  H
  H72      1.0000 0.05649  0.07459  0.41632  Biso   1.000  H
  C75      1.0000 0.15878  0.31907  0.68454  Biso   1.000  C
  H73      1.0000 0.02396  0.24435  0.32902  Biso   1.000  H
  H74      1.0000 0.01946  0.12121  0.31413  Biso   1.000  H
  N12      1.0000 0.13351  0.19006  0.25731  Biso   1.000  N
  H75      1.0000 0.10513  0.90956  0.42201  Biso   1.000  H
  H76      1.0000 0.22688  0.94127  0.38642  Biso   1.000  H
  N13      1.0000 0.06323  0.90294  0.32024  Biso   1.000  N
  H77      1.0000 0.16017  0.24417  0.67731  Biso   1.000  H
  H78      1.0000 0.07330  0.32606  0.69300  Biso   1.000  H
  C76      1.0000 0.18761  0.34633  0.61810  Biso   1.000  C
  C77      1.0000 0.10694  0.10448  0.20662  Biso   1.000  C
  C78      1.0000 0.11006  0.85369  0.26918  Biso   1.000  C
  H79      1.0000 0.14234  0.28575  0.57560  Biso   1.000  H
  H80      1.0000 0.27896  0.35701  0.61640  Biso   1.000  H
  N14      1.0000 0.15128  0.44192  0.61544  Biso   1.000  N
  H81      1.0000 0.05215  0.04390  0.21220  Biso   1.000  H
  C79      1.0000 0.15590  0.09219  0.13874  Biso   1.000  C
  H82      1.0000 0.19527  0.85121  0.27721  Biso   1.000  H
  C80      1.0000 0.03755  0.79971  0.19747  Biso   1.000  C
  C81      1.0000 0.23899  0.50445  0.58315  Biso   1.000  C
  C82      1.0000 0.02148  0.41826  0.58102  Biso   1.000  C
  C83      1.0000 0.11315  0.99790  0.08283  Biso   1.000  C
  C84      1.0000 0.24275  0.17550  0.12788  Biso   1.000  C
  C85      1.0000 0.08729  0.73472  0.14469  Biso   1.000  C
  C86      1.0000 0.91511  0.80749  0.18087  Biso   1.000  C
  C87      1.0000 0.35280  0.57687  0.63635  Biso   1.000  C
  H83      1.0000 0.26717  0.45554  0.54341  Biso   1.000  H
  H84      1.0000 0.19505  0.54806  0.56331  Biso   1.000  H
  C88      1.0000 0.96313  0.51130  0.60890  Biso   1.000  C
  H85      1.0000 0.97071  0.35464  0.58948  Biso   1.000  H
  H86      1.0000 0.01971  0.40152  0.52900  Biso   1.000  H
  C89      1.0000 0.15324  0.98613  0.01740  Biso   1.000  C
  H87      1.0000 0.05503  0.93991  0.08942  Biso   1.000  H
  H88      1.0000 0.27425  0.24087  0.16571  Biso   1.000  H
  C90      1.0000 0.28349  0.16384  0.06298  Biso   1.000  C
  H89      1.0000 0.17069  0.72901  0.15459  Biso   1.000  H
  C91      1.0000 0.01742  0.67821  0.07799  Biso   1.000  C
  C92      1.0000 0.84571  0.75329  0.11427  Biso   1.000  C
  H90      1.0000 0.87903  0.85101  0.21619  Biso   1.000  H
  H91      1.0000 0.42122  0.59996  0.61071  Biso   1.000  H
  H92      1.0000 0.38337  0.53735  0.66550  Biso   1.000  H
  N15      1.0000 0.32088  0.66995  0.68252  Biso   1.000  N
  H93      1.0000 0.89039  0.50472  0.57400  Biso   1.000  H
  N16      1.0000 0.92166  0.51292  0.67715  Biso   1.000  N
  H94      1.0000 0.02587  0.57903  0.61502  Biso   1.000  H
  H95      1.0000 0.12203  0.92093  0.97931  Biso   1.000  H
  C93      1.0000 0.23823  0.06916  0.00798  Biso   1.000  C
  H96      1.0000 0.34273  0.22105  0.05618  Biso   1.000  H
  H97      1.0000 0.05158  0.63259  0.04282  Biso   1.000  H
  C94      1.0000 0.89743  0.68901  0.06325  Biso   1.000  C
  H98      1.0000 0.76303  0.76007  0.10363  Biso   1.000  H
  C95      1.0000 0.34950  0.69411  0.74849  Biso   1.000  C
  C96      1.0000 0.98318  0.58474  0.73279  Biso   1.000  C
  O5       1.0000 0.27541  0.06567  0.94255  Biso   1.000  O
  O6       1.0000 0.82047  0.63043  0.99862  Biso   1.000  O
  C97      1.0000 0.32614  0.78891  0.79987  Biso   1.000  C
  H99      1.0000 0.38801  0.64920  0.76631  Biso   1.000  H
  C98      1.0000 0.94629  0.59395  0.80333  Biso   1.000  C
  H100     1.0000 0.05569  0.63444  0.72912  Biso   1.000  H
  C99      1.0000 0.28801  0.97018  0.89669  Biso   1.000  C
  C100     1.0000 0.86989  0.61983  0.93590  Biso   1.000  C
  C101     1.0000 0.36433  0.81432  0.87212  Biso   1.000  C
  C102     1.0000 0.26789  0.85706  0.77711  Biso   1.000  C
  C103     1.0000 0.85462  0.51444  0.81456  Biso   1.000  C
  C104     1.0000 0.00035  0.68547  0.86062  Biso   1.000  C
  C105     1.0000 0.34641  0.90414  0.92026  Biso   1.000  C
  C106     1.0000 0.24850  0.94666  0.82493  Biso   1.000  C
  C107     1.0000 0.96287  0.69855  0.92659  Biso   1.000  C
  C108     1.0000 0.81610  0.52694  0.88009  Biso   1.000  C
  H101     1.0000 0.40359  0.76882  0.88871  Biso   1.000  H
  H102     1.0000 0.24111  0.84114  0.72769  Biso   1.000  H
  H103     1.0000 0.81798  0.45035  0.77641  Biso   1.000  H
  H104     1.0000 0.06437  0.73994  0.85440  Biso   1.000  H
  H105     1.0000 0.37400  0.92072  0.96962  Biso   1.000  H
  H106     1.0000 0.20817  0.99204  0.80870  Biso   1.000  H
  H107     1.0000 0.00110  0.76150  0.96532  Biso   1.000  H
  H108     1.0000 0.75291  0.47224  0.88680  Biso   1.000  H
  Ne1      1.0000 0.19516  0.78971  0.00248  Biso   1.000  Ne
  He1      1.0000 0.27593  0.67877  0.11161  Biso   1.000  He
  He2      1.0000 0.39597  0.01171  0.04716  Biso   1.000  He
  He3      1.0000 0.07101  0.82187  0.04559  Biso   1.000  He
  He4      1.0000 0.11050  0.65272  0.97837  Biso   1.000  He
  He5      1.0000 0.46715  0.77710  0.96733  Biso   1.000  He
  He6      1.0000 0.15273  0.82355  0.92327  Biso   1.000  He
  Ar1      1.0000 0.19844  0.79205  0.00412  Biso   1.000  Ar
  Ne2      1.0000 0.80487  0.21023  0.99752  Biso   1.000  Ne
  He7      1.0000 0.88758  0.13895  0.10182  Biso   1.000  He
  He8      1.0000 0.95417  0.41274  0.03797  Biso   1.000  He
  He9      1.0000 0.65029  0.23292  0.03536  Biso   1.000  He
  He10     1.0000 0.02820  0.16813  0.96331  Biso   1.000  He
  He11     1.0000 0.67112  0.04786  0.95812  Biso   1.000  He
  He12     1.0000 0.00000  0.00000  0.00000  Biso   1.000  He
  Ar2      1.0000 0.80159  0.20792  0.99590  Biso   1.000  Ar
