data_image0
_cell_length_a       13.043
_cell_length_b       13.288
_cell_length_c       19.284
_cell_angle_alpha    98.78
_cell_angle_beta     100.25
_cell_angle_gamma    118.66

_symmetry_space_group_name_H-M    "P 1"
_symmetry_int_tables_number       1

loop_
  _symmetry_equiv_pos_as_xyz
  'x, y, z'

loop_
  _atom_site_label
  _atom_site_occupancy
  _atom_site_fract_x
  _atom_site_fract_y
  _atom_site_fract_z
  _atom_site_thermal_displace_type
  _atom_site_B_iso_or_equiv
  _atom_site_type_symbol
  C1       1.0000 0.49522  0.40756  0.56005  Biso   1.000  C
  C2       1.0000 0.37409  0.30737  0.50572  Biso   1.000  C
  H1       1.0000 0.49086  0.48017  0.57299  Biso   1.000  H
  H2       1.0000 0.56134  0.42608  0.53653  Biso   1.000  H
  N1       1.0000 0.52460  0.37560  0.62704  Biso   1.000  N
  H3       1.0000 0.37698  0.23354  0.49618  Biso   1.000  H
  H4       1.0000 0.36540  0.32835  0.45879  Biso   1.000  H
  N2       1.0000 0.26610  0.28243  0.52946  Biso   1.000  N
  C3       1.0000 0.49539  0.41072  0.68011  Biso   1.000  C
  C4       1.0000 0.24273  0.37987  0.52776  Biso   1.000  C
  C5       1.0000 0.15995  0.16971  0.48160  Biso   1.000  C
  C6       1.0000 0.51346  0.38658  0.75170  Biso   1.000  C
  H5       1.0000 0.45856  0.45674  0.67353  Biso   1.000  H
  C7       1.0000 0.14224  0.37351  0.56005  Biso   1.000  C
  H6       1.0000 0.31931  0.45624  0.55462  Biso   1.000  H
  H7       1.0000 0.22141  0.38114  0.47612  Biso   1.000  H
  C8       1.0000 0.16230  0.05936  0.49065  Biso   1.000  C
  H8       1.0000 0.08536  0.16326  0.49130  Biso   1.000  H
  H9       1.0000 0.15459  0.17161  0.43001  Biso   1.000  H
  C9       1.0000 0.48040  0.43509  0.80576  Biso   1.000  C
  C10      1.0000 0.56328  0.31728  0.76815  Biso   1.000  C
  H10      1.0000 0.06479  0.29792  0.53341  Biso   1.000  H
  H11      1.0000 0.13071  0.44026  0.55342  Biso   1.000  H
  N3       1.0000 0.17147  0.38027  0.63822  Biso   1.000  N
  H12      1.0000 0.23927  0.06731  0.48429  Biso   1.000  H
  N4       1.0000 0.15262  0.04131  0.56284  Biso   1.000  N
  H13      1.0000 0.09369  0.98864  0.45211  Biso   1.000  H
  C11      1.0000 0.49266  0.41295  0.87340  Biso   1.000  C
  H14      1.0000 0.44880  0.48437  0.79611  Biso   1.000  H
  H15      1.0000 0.58876  0.28478  0.73241  Biso   1.000  H
  C12      1.0000 0.57536  0.29607  0.83596  Biso   1.000  C
  C13      1.0000 0.09583  0.29521  0.65757  Biso   1.000  C
  C14      1.0000 0.23642  0.03564  0.60221  Biso   1.000  C
  C15      1.0000 0.53929  0.34194  0.89023  Biso   1.000  C
  H16      1.0000 0.46865  0.44703  0.90942  Biso   1.000  H
  H17      1.0000 0.60928  0.24868  0.84599  Biso   1.000  H
  C16      1.0000 0.10796  0.29014  0.73383  Biso   1.000  C
  H18      1.0000 0.02681  0.23035  0.62063  Biso   1.000  H
  C17      1.0000 0.23696  0.01390  0.67495  Biso   1.000  C
  H19      1.0000 0.30307  0.04584  0.58422  Biso   1.000  H
  C18      1.0000 0.55306  0.32077  0.96293  Biso   1.000  C
  C19      1.0000 0.19405  0.38946  0.79293  Biso   1.000  C
  C20      1.0000 0.03161  0.18521  0.74924  Biso   1.000  C
  C21      1.0000 0.33383  0.01051  0.71519  Biso   1.000  C
  C22      1.0000 0.14137  0.99379  0.70450  Biso   1.000  C
  C23      1.0000 0.64256  0.29757  0.99417  Biso   1.000  C
  C24      1.0000 0.47559  0.32217  0.00448  Biso   1.000  C
  C25      1.0000 0.20449  0.38006  0.86376  Biso   1.000  C
  H20      1.0000 0.24547  0.46337  0.78410  Biso   1.000  H
  C26      1.0000 0.04282  0.17553  0.82001  Biso   1.000  C
  H21      1.0000 0.96996  0.11829  0.70998  Biso   1.000  H
  H22      1.0000 0.39934  0.02281  0.69540  Biso   1.000  H
  C27      1.0000 0.33757  0.98986  0.78350  Biso   1.000  C
  C28      1.0000 0.14386  0.97230  0.77226  Biso   1.000  C
  H23      1.0000 0.07344  0.99489  0.67769  Biso   1.000  H
  H24      1.0000 0.69525  0.29371  0.96704  Biso   1.000  H
  C29      1.0000 0.65626  0.28047  0.06314  Biso   1.000  C
  H25      1.0000 0.41101  0.33344  0.98409  Biso   1.000  H
  C30      1.0000 0.49078  0.30764  0.07438  Biso   1.000  C
  C31      1.0000 0.13176  0.27376  0.87916  Biso   1.000  C
  H26      1.0000 0.26297  0.44837  0.90323  Biso   1.000  H
  H27      1.0000 0.99015  0.10205  0.82883  Biso   1.000  H
  C32      1.0000 0.24151  0.97010  0.81381  Biso   1.000  C
  H28      1.0000 0.40552  0.98892  0.81009  Biso   1.000  H
  H29      1.0000 0.07722  0.95859  0.79123  Biso   1.000  H
  C33      1.0000 0.58215  0.28790  0.10513  Biso   1.000  C
  H30      1.0000 0.71676  0.26347  0.08222  Biso   1.000  H
  H31      1.0000 0.43818  0.31125  0.10173  Biso   1.000  H
  C34      1.0000 0.14830  0.26439  0.95596  Biso   1.000  C
  C35      1.0000 0.24462  0.94964  0.88694  Biso   1.000  C
  C36      1.0000 0.60116  0.27528  0.17985  Biso   1.000  C
  C37      1.0000 0.12848  0.15758  0.97175  Biso   1.000  C
  C38      1.0000 0.18832  0.36313  0.01473  Biso   1.000  C
  C39      1.0000 0.35480  0.00547  0.94297  Biso   1.000  C
  C40      1.0000 0.13732  0.87561  0.90394  Biso   1.000  C
  H32      1.0000 0.64187  0.23496  0.19323  Biso   1.000  H
  N5       1.0000 0.56465  0.31670  0.22727  Biso   1.000  N
  H33      1.0000 0.10145  0.08938  0.93272  Biso   1.000  H
  C41      1.0000 0.14771  0.15058  0.04296  Biso   1.000  C
  C42      1.0000 0.20935  0.35643  0.08583  Biso   1.000  C
  H34      1.0000 0.20101  0.43575  0.00530  Biso   1.000  H
  H35      1.0000 0.42908  0.05481  0.93288  Biso   1.000  H
  C43      1.0000 0.35792  0.99047  0.01183  Biso   1.000  C
  C44      1.0000 0.14090  0.86174  0.97301  Biso   1.000  C
  H36      1.0000 0.06119  0.83449  0.86694  Biso   1.000  H
  C45      1.0000 0.59195  0.30325  0.30035  Biso   1.000  C
  C46      1.0000 0.18916  0.25025  0.10168  Biso   1.000  C
  H37      1.0000 0.13244  0.07733  0.05250  Biso   1.000  H
  H38      1.0000 0.23812  0.42517  0.12492  Biso   1.000  H
  C47      1.0000 0.25047  0.91977  0.02877  Biso   1.000  C
  H39      1.0000 0.43393  0.02854  0.04850  Biso   1.000  H
  H40      1.0000 0.06710  0.81124  0.98299  Biso   1.000  H
  C48      1.0000 0.47877  0.25186  0.32611  Biso   1.000  C
  H41      1.0000 0.62498  0.24994  0.30024  Biso   1.000  H
  H42      1.0000 0.65509  0.38196  0.33472  Biso   1.000  H
  C49      1.0000 0.21427  0.24809  0.17870  Biso   1.000  C
  C50      1.0000 0.25164  0.90738  0.10343  Biso   1.000  C
  H43      1.0000 0.44817  0.30725  0.32781  Biso   1.000  H
  H44      1.0000 0.50114  0.24629  0.37660  Biso   1.000  H
  N6       1.0000 0.38054  0.13403  0.27968  Biso   1.000  N
  H45      1.0000 0.26352  0.32240  0.21532  Biso   1.000  H
  N7       1.0000 0.17506  0.15426  0.19953  Biso   1.000  N
  H46      1.0000 0.17561  0.86998  0.11412  Biso   1.000  H
  N8       1.0000 0.34742  0.94329  0.15425  Biso   1.000  N
  C51      1.0000 0.26678  0.09908  0.29832  Biso   1.000  C
  C52      1.0000 0.41432  0.04447  0.28593  Biso   1.000  C
  C53      1.0000 0.20806  0.16994  0.27809  Biso   1.000  C
  C54      1.0000 0.33392  0.92738  0.22546  Biso   1.000  C
  H47      1.0000 0.20794  0.01359  0.27310  Biso   1.000  H
  H48      1.0000 0.28283  0.10837  0.35171  Biso   1.000  H
  H49      1.0000 0.50005  0.07810  0.28500  Biso   1.000  H
  H50      1.0000 0.40994  0.02756  0.33390  Biso   1.000  H
  H51      1.0000 0.26568  0.25559  0.30364  Biso   1.000  H
  H52      1.0000 0.13398  0.14348  0.29481  Biso   1.000  H
  H53      1.0000 0.24753  0.89518  0.22442  Biso   1.000  H
  H54      1.0000 0.35603  0.86866  0.23643  Biso   1.000  H
  C55      1.0000 0.50481  0.59256  0.43999  Biso   1.000  C
  N9       1.0000 0.47543  0.62451  0.37300  Biso   1.000  N
  H55      1.0000 0.50906  0.51992  0.42700  Biso   1.000  H
  H56      1.0000 0.43869  0.57403  0.46351  Biso   1.000  H
  C56      1.0000 0.62591  0.69272  0.49426  Biso   1.000  C
  C57      1.0000 0.50464  0.58939  0.31993  Biso   1.000  C
  H57      1.0000 0.62302  0.76655  0.50380  Biso   1.000  H
  H58      1.0000 0.63460  0.67174  0.54119  Biso   1.000  H
  N10      1.0000 0.73393  0.71768  0.47058  Biso   1.000  N
  C58      1.0000 0.48649  0.61354  0.24834  Biso   1.000  C
  H59      1.0000 0.54139  0.54337  0.32651  Biso   1.000  H
  C59      1.0000 0.75730  0.62025  0.47228  Biso   1.000  C
  C60      1.0000 0.84001  0.83040  0.51844  Biso   1.000  C
  C61      1.0000 0.51963  0.56502  0.19428  Biso   1.000  C
  C62      1.0000 0.43672  0.68281  0.23184  Biso   1.000  C
  C63      1.0000 0.85769  0.62658  0.43994  Biso   1.000  C
  H60      1.0000 0.68072  0.54388  0.44542  Biso   1.000  H
  H61      1.0000 0.77862  0.61897  0.52392  Biso   1.000  H
  C64      1.0000 0.83770  0.94073  0.50934  Biso   1.000  C
  H62      1.0000 0.91457  0.83683  0.50868  Biso   1.000  H
  H63      1.0000 0.84544  0.82850  0.57003  Biso   1.000  H
  C65      1.0000 0.50734  0.58714  0.12658  Biso   1.000  C
  H64      1.0000 0.55120  0.51572  0.20388  Biso   1.000  H
  H65      1.0000 0.41125  0.71531  0.26758  Biso   1.000  H
  C66      1.0000 0.42464  0.70402  0.16402  Biso   1.000  C
  H66      1.0000 0.93522  0.70217  0.46658  Biso   1.000  H
  H67      1.0000 0.86932  0.55985  0.44662  Biso   1.000  H
  N11      1.0000 0.82848  0.61984  0.36182  Biso   1.000  N
  H68      1.0000 0.76073  0.93278  0.51570  Biso   1.000  H
  N12      1.0000 0.84730  0.95877  0.43714  Biso   1.000  N
  H69      1.0000 0.90634  0.01147  0.54793  Biso   1.000  H
  C67      1.0000 0.46063  0.65815  0.10975  Biso   1.000  C
  H70      1.0000 0.53134  0.55300  0.09062  Biso   1.000  H
  H71      1.0000 0.39072  0.75141  0.15399  Biso   1.000  H
  C68      1.0000 0.90413  0.70490  0.34247  Biso   1.000  C
  C69      1.0000 0.76351  0.96445  0.39778  Biso   1.000  C
  C70      1.0000 0.44695  0.67932  0.03706  Biso   1.000  C
  C71      1.0000 0.89204  0.70995  0.26615  Biso   1.000  C
  H72      1.0000 0.97322  0.76976  0.37941  Biso   1.000  H
  C72      1.0000 0.76307  0.98621  0.32509  Biso   1.000  C
  H73      1.0000 0.69696  0.95427  0.41582  Biso   1.000  H
  C73      1.0000 0.35745  0.70252  0.00581  Biso   1.000  C
  C74      1.0000 0.52442  0.67792  0.99550  Biso   1.000  C
  C75      1.0000 0.80588  0.61063  0.20706  Biso   1.000  C
  C76      1.0000 0.96834  0.81490  0.25080  Biso   1.000  C
  C77      1.0000 0.66620  0.98961  0.28485  Biso   1.000  C
  C78      1.0000 0.85863  0.00630  0.29548  Biso   1.000  C
  H74      1.0000 0.30478  0.70640  0.03300  Biso   1.000  H
  C79      1.0000 0.34369  0.71964  0.93690  Biso   1.000  C
  H75      1.0000 0.58899  0.66665  0.01590  Biso   1.000  H
  C80      1.0000 0.50925  0.69247  0.92566  Biso   1.000  C
  C81      1.0000 0.79552  0.62003  0.13623  Biso   1.000  C
  H76      1.0000 0.75453  0.53672  0.21588  Biso   1.000  H
  C82      1.0000 0.95711  0.82456  0.17998  Biso   1.000  C
  H77      1.0000 0.03012  0.88180  0.29000  Biso   1.000  H
  H78      1.0000 0.60066  0.97728  0.30458  Biso   1.000  H
  C83      1.0000 0.66243  0.01023  0.21649  Biso   1.000  C
  C84      1.0000 0.85614  0.02779  0.22773  Biso   1.000  C
  H79      1.0000 0.92656  0.00520  0.32229  Biso   1.000  H
  C85      1.0000 0.41777  0.71219  0.89485  Biso   1.000  C
  H80      1.0000 0.28319  0.73664  0.91782  Biso   1.000  H
  H81      1.0000 0.56185  0.68886  0.89831  Biso   1.000  H
  C86      1.0000 0.86825  0.72632  0.12082  Biso   1.000  C
  H82      1.0000 0.73706  0.55175  0.09681  Biso   1.000  H
  H83      1.0000 0.00996  0.89807  0.17121  Biso   1.000  H
  C87      1.0000 0.75845  0.03002  0.18623  Biso   1.000  C
  H84      1.0000 0.59441  0.01117  0.18990  Biso   1.000  H
  H85      1.0000 0.92273  0.04152  0.20881  Biso   1.000  H
  C88      1.0000 0.39884  0.72481  0.82013  Biso   1.000  C
  C89      1.0000 0.85173  0.73572  0.04408  Biso   1.000  C
  C90      1.0000 0.75531  0.05045  0.11304  Biso   1.000  C
  H86      1.0000 0.35816  0.76515  0.80681  Biso   1.000  H
  N13      1.0000 0.43531  0.68341  0.77277  Biso   1.000  N
  C91      1.0000 0.87155  0.84254  0.02829  Biso   1.000  C
  C92      1.0000 0.81167  0.63689  0.98531  Biso   1.000  C
  C93      1.0000 0.64513  0.99462  0.05701  Biso   1.000  C
  C94      1.0000 0.86268  0.12447  0.09605  Biso   1.000  C
  C95      1.0000 0.40808  0.69686  0.69969  Biso   1.000  C
  H87      1.0000 0.89858  0.91073  0.06732  Biso   1.000  H
  C96      1.0000 0.85229  0.84951  0.95702  Biso   1.000  C
  C97      1.0000 0.79056  0.64359  0.91421  Biso   1.000  C
  H88      1.0000 0.79900  0.56434  0.99468  Biso   1.000  H
  H89      1.0000 0.57085  0.94528  0.06710  Biso   1.000  H
  C98      1.0000 0.64203  0.00964  0.98821  Biso   1.000  C
  C99      1.0000 0.85905  0.13837  0.02703  Biso   1.000  C
  H90      1.0000 0.93873  0.16554  0.13310  Biso   1.000  H
  C100     1.0000 0.52126  0.74825  0.67393  Biso   1.000  C
  H91      1.0000 0.37501  0.75008  0.69980  Biso   1.000  H
  H92      1.0000 0.34494  0.61815  0.66532  Biso   1.000  H
  C101     1.0000 0.81077  0.74984  0.89831  Biso   1.000  C
  H93      1.0000 0.86748  0.92276  0.94748  Biso   1.000  H
  H94      1.0000 0.76191  0.57495  0.87512  Biso   1.000  H
  H95      1.0000 0.56600  0.97155  0.95148  Biso   1.000  H
  C102     1.0000 0.74953  0.08032  0.97122  Biso   1.000  C
  H96      1.0000 0.93283  0.18884  0.01699  Biso   1.000  H
  H97      1.0000 0.55183  0.69283  0.67217  Biso   1.000  H
  H98      1.0000 0.49878  0.75380  0.62338  Biso   1.000  H
  N14      1.0000 0.61949  0.86608  0.72036  Biso   1.000  N
  C103     1.0000 0.78565  0.75200  0.82128  Biso   1.000  C
  C104     1.0000 0.74839  0.09273  0.89661  Biso   1.000  C
  C105     1.0000 0.73325  0.90103  0.70172  Biso   1.000  C
  C106     1.0000 0.58563  0.95564  0.71411  Biso   1.000  C
  N15      1.0000 0.82490  0.84585  0.80051  Biso   1.000  N
  H99      1.0000 0.73651  0.67771  0.78472  Biso   1.000  H
  N16      1.0000 0.65253  0.05682  0.84579  Biso   1.000  N
  H100     1.0000 0.82435  0.13014  0.88592  Biso   1.000  H
  H101     1.0000 0.79198  0.98650  0.72688  Biso   1.000  H
  H102     1.0000 0.71709  0.89172  0.64827  Biso   1.000  H
  C107     1.0000 0.79194  0.83015  0.72189  Biso   1.000  C
  H103     1.0000 0.49995  0.92199  0.71499  Biso   1.000  H
  H104     1.0000 0.59006  0.97252  0.66609  Biso   1.000  H
  C108     1.0000 0.66608  0.07271  0.77452  Biso   1.000  C
  H105     1.0000 0.73435  0.74453  0.69640  Biso   1.000  H
  H106     1.0000 0.86602  0.85661  0.70517  Biso   1.000  H
  H107     1.0000 0.75250  0.10493  0.77562  Biso   1.000  H
  H108     1.0000 0.64400  0.13145  0.76361  Biso   1.000  H
  Ne1      1.0000 0.68435  0.80474  0.09971  Biso   1.000  Ne
  He1      1.0000 0.93611  0.96265  0.14976  Biso   1.000  He
  He2      1.0000 0.59859  0.84922  0.12010  Biso   1.000  He
  Ar1      1.0000 0.70645  0.80266  0.12686  Biso   1.000  Ar
  Ne2      1.0000 0.31563  0.19536  0.90030  Biso   1.000  Ne
  He3      1.0000 0.47801  0.14132  0.88033  Biso   1.000  He
  He4      1.0000 0.04986  0.02838  0.84937  Biso   1.000  He
  Ar2      1.0000 0.27768  0.18144  0.88588  Biso   1.000  Ar
