data_image0
_cell_length_a       12.398
_cell_length_b       12.927
_cell_length_c       13.03
_cell_angle_alpha    93.79
_cell_angle_beta     113.71
_cell_angle_gamma    104.74

_symmetry_space_group_name_H-M    "P 1"
_symmetry_int_tables_number       1

loop_
  _symmetry_equiv_pos_as_xyz
  'x, y, z'

loop_
  _atom_site_label
  _atom_site_occupancy
  _atom_site_fract_x
  _atom_site_fract_y
  _atom_site_fract_z
  _atom_site_thermal_displace_type
  _atom_site_B_iso_or_equiv
  _atom_site_type_symbol
  C1       1.0000 0.68420  0.70326  0.90164  Biso   1.000  C
  N1       1.0000 0.72970  0.64817  0.84273  Biso   1.000  N
  N2       1.0000 0.72960  0.64809  0.84273  Biso   1.000  N
  N3       1.0000 0.61247  0.75541  0.82762  Biso   1.000  N
  N4       1.0000 0.61237  0.75533  0.82762  Biso   1.000  N
  O1       1.0000 0.70343  0.70416  0.00137  Biso   1.000  O
  O2       1.0000 0.70354  0.70424  0.00137  Biso   1.000  O
  C2       1.0000 0.79813  0.57424  0.88977  Biso   1.000  C
  C3       1.0000 0.79821  0.57424  0.88977  Biso   1.000  C
  C4       1.0000 0.68484  0.65836  0.72388  Biso   1.000  C
  C5       1.0000 0.68494  0.65844  0.72388  Biso   1.000  C
  C6       1.0000 0.68410  0.70318  0.90164  Biso   1.000  C
  C7       1.0000 0.60593  0.73595  0.71423  Biso   1.000  C
  C8       1.0000 0.60585  0.73595  0.71423  Biso   1.000  C
  C9       1.0000 0.53803  0.81171  0.85528  Biso   1.000  C
  C10      1.0000 0.53801  0.81163  0.85528  Biso   1.000  C
  N5       1.0000 0.93019  0.61844  0.92487  Biso   1.000  N
  N6       1.0000 0.93008  0.61836  0.92487  Biso   1.000  N
  H1       1.0000 0.76522  0.50672  0.83197  Biso   1.000  H
  H2       1.0000 0.78441  0.55438  0.95663  Biso   1.000  H
  H3       1.0000 0.78447  0.55430  0.95663  Biso   1.000  H
  H4       1.0000 0.78449  0.55438  0.95663  Biso   1.000  H
  H5       1.0000 0.76514  0.50672  0.83197  Biso   1.000  H
  H6       1.0000 0.78439  0.55430  0.95663  Biso   1.000  H
  N7       1.0000 0.77914  0.71673  0.69204  Biso   1.000  N
  N8       1.0000 0.77912  0.71665  0.69204  Biso   1.000  N
  H7       1.0000 0.63443  0.58627  0.67180  Biso   1.000  H
  H8       1.0000 0.63435  0.58627  0.67180  Biso   1.000  H
  N9       1.0000 0.77904  0.71665  0.69204  Biso   1.000  N
  N10      1.0000 0.66983  0.83034  0.68384  Biso   1.000  N
  H9       1.0000 0.51865  0.70215  0.65490  Biso   1.000  H
  N11      1.0000 0.58767  0.92962  0.87868  Biso   1.000  N
  N12      1.0000 0.58775  0.92962  0.87868  Biso   1.000  N
  H10      1.0000 0.52914  0.78818  0.92307  Biso   1.000  H
  H11      1.0000 0.45425  0.78938  0.79091  Biso   1.000  H
  H12      1.0000 0.52906  0.78818  0.92307  Biso   1.000  H
  C11      1.0000 0.01331  0.64546  0.03799  Biso   1.000  C
  C12      1.0000 0.01325  0.64554  0.03799  Biso   1.000  C
  C13      1.0000 0.98922  0.60722  0.84982  Biso   1.000  C
  C14      1.0000 0.85994  0.66675  0.66745  Biso   1.000  C
  C15      1.0000 0.76308  0.81311  0.66070  Biso   1.000  C
  C16      1.0000 0.61150  0.91162  0.63850  Biso   1.000  C
  C17      1.0000 0.61142  0.91162  0.63850  Biso   1.000  C
  C18      1.0000 0.56161  0.99557  0.79031  Biso   1.000  C
  C19      1.0000 0.56159  0.99549  0.79031  Biso   1.000  C
  C20      1.0000 0.63418  0.99074  0.98625  Biso   1.000  C
  C21      1.0000 0.56151  0.99549  0.79031  Biso   1.000  C
  O3       1.0000 0.98744  0.64536  0.11902  Biso   1.000  O
  O4       1.0000 0.98754  0.64544  0.11902  Biso   1.000  O
  N13      1.0000 0.13007  0.66745  0.04414  Biso   1.000  N
  N14      1.0000 0.13015  0.66745  0.04414  Biso   1.000  N
  C22      1.0000 0.12928  0.65358  0.93246  Biso   1.000  C
  C23      1.0000 0.12934  0.65350  0.93246  Biso   1.000  C
  H13      1.0000 0.96663  0.52925  0.81421  Biso   1.000  H
  H14      1.0000 0.96661  0.52917  0.81421  Biso   1.000  H
  N15      1.0000 0.97394  0.67585  0.76563  Biso   1.000  N
  H15      1.0000 0.81499  0.58867  0.63432  Biso   1.000  H
  H16      1.0000 0.81509  0.58875  0.63432  Biso   1.000  H
  H17      1.0000 0.88051  0.70096  0.60913  Biso   1.000  H
  O5       1.0000 0.82170  0.87268  0.61963  Biso   1.000  O
  H18      1.0000 0.64282  0.94189  0.58446  Biso   1.000  H
  N16      1.0000 0.63359  0.00001  0.72576  Biso   1.000  N
  H19      1.0000 0.64288  0.94195  0.58437  Biso   1.000  H
  N17      1.0000 0.63369  0.00009  0.72576  Biso   1.000  N
  H20      1.0000 0.64278  0.94187  0.58437  Biso   1.000  H
  H21      1.0000 0.52110  0.87595  0.59530  Biso   1.000  H
  O6       1.0000 0.65339  0.95547  0.07445  Biso   1.000  O
  O7       1.0000 0.65349  0.95555  0.07445  Biso   1.000  O
  N18      1.0000 0.65279  0.09750  0.97644  Biso   1.000  N
  N19      1.0000 0.65273  0.09758  0.97644  Biso   1.000  N
  N20      1.0000 0.65271  0.09750  0.97644  Biso   1.000  N
  N21      1.0000 0.65281  0.09758  0.97644  Biso   1.000  N
  H22      1.0000 0.47086  0.97499  0.73908  Biso   1.000  H
  C24      1.0000 0.61174  0.11308  0.85998  Biso   1.000  C
  C25      1.0000 0.61182  0.11308  0.85998  Biso   1.000  C
  C26      1.0000 0.24066  0.71551  0.15027  Biso   1.000  C
  C27      1.0000 0.24068  0.71559  0.15027  Biso   1.000  C
  N22      1.0000 0.16866  0.75388  0.89456  Biso   1.000  N
  H23      1.0000 0.17535  0.60207  0.92589  Biso   1.000  H
  H24      1.0000 0.17525  0.60199  0.92589  Biso   1.000  H
  H25      1.0000 0.17533  0.60199  0.92589  Biso   1.000  H
  N23      1.0000 0.16874  0.75388  0.89456  Biso   1.000  N
  C28      1.0000 0.08046  0.75918  0.79150  Biso   1.000  C
  C29      1.0000 0.71819  0.10054  0.74813  Biso   1.000  C
  C30      1.0000 0.71808  0.10046  0.74813  Biso   1.000  C
  C31      1.0000 0.70234  0.18660  0.07155  Biso   1.000  C
  C32      1.0000 0.70242  0.18660  0.07155  Biso   1.000  C
  H26      1.0000 0.54589  0.14971  0.83880  Biso   1.000  H
  N24      1.0000 0.71032  0.16677  0.83052  Biso   1.000  N
  N25      1.0000 0.71043  0.16685  0.83052  Biso   1.000  N
  N26      1.0000 0.28964  0.83338  0.16948  Biso   1.000  N
  H27      1.0000 0.22162  0.69532  0.21447  Biso   1.000  H
  H28      1.0000 0.30557  0.68375  0.15069  Biso   1.000  H
  H29      1.0000 0.22164  0.69540  0.21447  Biso   1.000  H
  N27      1.0000 0.28972  0.83338  0.16948  Biso   1.000  N
  C33      1.0000 0.29770  0.81355  0.92845  Biso   1.000  C
  O8       1.0000 0.09387  0.82490  0.73140  Biso   1.000  O
  O9       1.0000 0.09377  0.82482  0.73140  Biso   1.000  O
  O10      1.0000 0.78732  0.12687  0.70279  Biso   1.000  O
  O11      1.0000 0.78723  0.12687  0.70279  Biso   1.000  O
  N28      1.0000 0.83141  0.24634  0.10544  Biso   1.000  N
  H30      1.0000 0.65275  0.23748  0.05089  Biso   1.000  H
  H31      1.0000 0.69432  0.15777  0.13746  Biso   1.000  H
  H32      1.0000 0.65273  0.23740  0.05089  Biso   1.000  H
  H33      1.0000 0.69430  0.15769  0.13746  Biso   1.000  H
  H34      1.0000 0.69440  0.15777  0.13746  Biso   1.000  H
  N29      1.0000 0.83138  0.24626  0.10544  Biso   1.000  N
  C34      1.0000 0.75939  0.28464  0.84973  Biso   1.000  C
  C35      1.0000 0.38833  0.88715  0.14002  Biso   1.000  C
  C36      1.0000 0.28190  0.89977  0.25187  Biso   1.000  C
  H35      1.0000 0.34732  0.76275  0.94911  Biso   1.000  H
  H36      1.0000 0.30573  0.84238  0.86254  Biso   1.000  H
  N30      1.0000 0.34734  0.90264  0.02356  Biso   1.000  N
  C37      1.0000 0.91967  0.24097  0.20850  Biso   1.000  C
  C38      1.0000 0.87069  0.34657  0.06754  Biso   1.000  C
  C39      1.0000 0.87079  0.34665  0.06754  Biso   1.000  C
  N31      1.0000 0.86998  0.33270  0.95586  Biso   1.000  N
  H37      1.0000 0.77843  0.30482  0.78553  Biso   1.000  H
  N32      1.0000 0.87000  0.33278  0.95586  Biso   1.000  N
  H38      1.0000 0.69448  0.31640  0.84931  Biso   1.000  H
  H39      1.0000 0.69458  0.31648  0.84931  Biso   1.000  H
  N33      1.0000 0.86990  0.33270  0.95586  Biso   1.000  N
  O12      1.0000 0.21284  0.87336  0.29721  Biso   1.000  O
  N34      1.0000 0.36640  0.00021  0.27424  Biso   1.000  N
  H40      1.0000 0.45416  0.85043  0.16120  Biso   1.000  H
  H41      1.0000 0.45410  0.85051  0.16120  Biso   1.000  H
  C40      1.0000 0.43846  0.00466  0.20969  Biso   1.000  C
  C41      1.0000 0.43848  0.00474  0.20969  Biso   1.000  C
  C42      1.0000 0.43854  0.00466  0.20969  Biso   1.000  C
  C43      1.0000 0.36587  0.00941  0.01375  Biso   1.000  C
  C44      1.0000 0.36581  0.00949  0.01375  Biso   1.000  C
  N35      1.0000 0.02610  0.32430  0.23437  Biso   1.000  N
  N36      1.0000 0.02604  0.32438  0.23437  Biso   1.000  N
  O13      1.0000 0.90620  0.17533  0.26860  Biso   1.000  O
  O14      1.0000 0.90628  0.17533  0.26860  Biso   1.000  O
  C45      1.0000 0.01091  0.39293  0.15018  Biso   1.000  C
  C46      1.0000 0.01093  0.39301  0.15018  Biso   1.000  C
  C47      1.0000 0.01085  0.39301  0.15018  Biso   1.000  C
  H42      1.0000 0.82480  0.39816  0.07411  Biso   1.000  H
  C48      1.0000 0.98674  0.35469  0.96201  Biso   1.000  C
  C49      1.0000 0.38863  0.08852  0.36150  Biso   1.000  C
  C50      1.0000 0.38853  0.08844  0.36150  Biso   1.000  C
  H43      1.0000 0.52919  0.02515  0.26092  Biso   1.000  H
  N37      1.0000 0.41238  0.07053  0.12132  Biso   1.000  N
  N38      1.0000 0.41232  0.07061  0.12132  Biso   1.000  N
  H44      1.0000 0.52913  0.02523  0.26092  Biso   1.000  H
  O15      1.0000 0.34658  0.04467  0.92555  Biso   1.000  O
  O16      1.0000 0.34666  0.04467  0.92555  Biso   1.000  O
  C51      1.0000 0.14011  0.33340  0.33255  Biso   1.000  C
  C52      1.0000 0.14000  0.33332  0.33255  Biso   1.000  C
  N39      1.0000 0.06988  0.38178  0.07513  Biso   1.000  N
  N40      1.0000 0.06999  0.38186  0.07513  Biso   1.000  N
  H45      1.0000 0.03352  0.47098  0.18579  Biso   1.000  H
  H46      1.0000 0.03342  0.47090  0.18579  Biso   1.000  H
  O17      1.0000 0.01261  0.35478  0.88098  Biso   1.000  O
  H47      1.0000 0.35729  0.05835  0.41563  Biso   1.000  H
  N41      1.0000 0.33022  0.16980  0.31616  Biso   1.000  N
  H48      1.0000 0.47892  0.12412  0.40470  Biso   1.000  H
  N42      1.0000 0.33016  0.16988  0.31616  Biso   1.000  N
  H49      1.0000 0.35721  0.05835  0.41563  Biso   1.000  H
  H50      1.0000 0.47886  0.12420  0.40470  Biso   1.000  H
  C53      1.0000 0.46204  0.18852  0.14472  Biso   1.000  C
  C54      1.0000 0.46206  0.18860  0.14472  Biso   1.000  C
  C55      1.0000 0.46212  0.18852  0.14472  Biso   1.000  C
  N43      1.0000 0.22093  0.28350  0.30796  Biso   1.000  N
  N44      1.0000 0.22095  0.28358  0.30796  Biso   1.000  N
  N45      1.0000 0.22101  0.28350  0.30796  Biso   1.000  N
  H51      1.0000 0.11954  0.29919  0.39087  Biso   1.000  H
  H52      1.0000 0.18506  0.41148  0.36568  Biso   1.000  H
  H53      1.0000 0.18508  0.41156  0.36568  Biso   1.000  H
  H54      1.0000 0.18498  0.41148  0.36568  Biso   1.000  H
  H55      1.0000 0.11946  0.29919  0.39087  Biso   1.000  H
  H56      1.0000 0.18500  0.41156  0.36568  Biso   1.000  H
  C56      1.0000 0.20192  0.42591  0.11023  Biso   1.000  C
  C57      1.0000 0.20194  0.42599  0.11023  Biso   1.000  C
  C58      1.0000 0.20186  0.42599  0.11023  Biso   1.000  C
  C59      1.0000 0.23691  0.18712  0.33930  Biso   1.000  C
  C60      1.0000 0.23697  0.18704  0.33930  Biso   1.000  C
  C61      1.0000 0.39420  0.26419  0.28577  Biso   1.000  C
  C62      1.0000 0.39414  0.26427  0.28577  Biso   1.000  C
  N46      1.0000 0.38760  0.24481  0.17238  Biso   1.000  N
  N47      1.0000 0.38770  0.24489  0.17238  Biso   1.000  N
  H57      1.0000 0.54580  0.21076  0.20909  Biso   1.000  H
  N48      1.0000 0.38768  0.24481  0.17238  Biso   1.000  N
  N49      1.0000 0.38762  0.24489  0.17238  Biso   1.000  N
  H58      1.0000 0.47091  0.21197  0.07693  Biso   1.000  H
  H59      1.0000 0.47097  0.21189  0.07693  Biso   1.000  H
  C63      1.0000 0.31513  0.34179  0.27612  Biso   1.000  C
  C64      1.0000 0.31515  0.34187  0.27612  Biso   1.000  C
  N50      1.0000 0.27037  0.35206  0.15727  Biso   1.000  N
  N51      1.0000 0.27047  0.35214  0.15727  Biso   1.000  N
  N52      1.0000 0.27045  0.35206  0.15727  Biso   1.000  N
  N53      1.0000 0.27039  0.35214  0.15727  Biso   1.000  N
  H60      1.0000 0.21566  0.44585  0.04337  Biso   1.000  H
  H61      1.0000 0.23493  0.49351  0.16803  Biso   1.000  H
  H62      1.0000 0.23482  0.49343  0.16803  Biso   1.000  H
  H63      1.0000 0.21558  0.44585  0.04337  Biso   1.000  H
  O18      1.0000 0.17837  0.12754  0.38037  Biso   1.000  O
  O19      1.0000 0.17827  0.12746  0.38037  Biso   1.000  O
  H64      1.0000 0.48140  0.29800  0.34510  Biso   1.000  H
  H65      1.0000 0.48130  0.29792  0.34510  Biso   1.000  H
  C65      1.0000 0.31587  0.29697  0.09836  Biso   1.000  C
  C66      1.0000 0.31589  0.29705  0.09836  Biso   1.000  C
  C67      1.0000 0.31597  0.29705  0.09836  Biso   1.000  C
  H66      1.0000 0.36570  0.41388  0.32820  Biso   1.000  H
  H67      1.0000 0.36564  0.41396  0.32820  Biso   1.000  H
  O20      1.0000 0.29661  0.29599  0.99863  Biso   1.000  O
