data_image0
_cell_length_a       14.521
_cell_length_b       34.311
_cell_length_c       11.877
_cell_angle_alpha    90
_cell_angle_beta     97.26
_cell_angle_gamma    90

_symmetry_space_group_name_H-M    "P 1"
_symmetry_int_tables_number       1

loop_
  _symmetry_equiv_pos_as_xyz
  'x, y, z'

loop_
  _atom_site_label
  _atom_site_occupancy
  _atom_site_fract_x
  _atom_site_fract_y
  _atom_site_fract_z
  _atom_site_thermal_displace_type
  _atom_site_B_iso_or_equiv
  _atom_site_type_symbol
  C1       1.0000 0.54337  0.47486  0.68114  Biso   1.000  C
  H1       1.0000 0.50916  0.46399  0.73987  Biso   1.000  H
  H2       1.0000 0.52176  0.46259  0.60797  Biso   1.000  H
  H3       1.0000 0.53267  0.50299  0.67553  Biso   1.000  H
  O1       1.0000 0.63959  0.46755  0.70991  Biso   1.000  O
  C2       1.0000 0.68389  0.48614  0.80404  Biso   1.000  C
  C3       1.0000 0.63722  0.50608  0.88221  Biso   1.000  C
  C4       1.0000 0.78071  0.48369  0.81932  Biso   1.000  C
  C5       1.0000 0.68540  0.52525  0.97515  Biso   1.000  C
  H4       1.0000 0.57128  0.50660  0.87185  Biso   1.000  H
  C6       1.0000 0.83168  0.46073  0.73673  Biso   1.000  C
  C7       1.0000 0.82857  0.50375  0.91056  Biso   1.000  C
  C8       1.0000 0.78220  0.52502  0.98627  Biso   1.000  C
  C9       1.0000 0.63361  0.54592  0.06113  Biso   1.000  C
  H5       1.0000 0.89125  0.45111  0.77679  Biso   1.000  H
  H6       1.0000 0.79385  0.43779  0.70923  Biso   1.000  H
  C10      1.0000 0.85075  0.48524  0.63607  Biso   1.000  C
  H7       1.0000 0.89445  0.50290  0.92159  Biso   1.000  H
  O2       1.0000 0.82803  0.54609  0.07522  Biso   1.000  O
  H8       1.0000 0.67279  0.54630  0.13565  Biso   1.000  H
  H9       1.0000 0.57634  0.53120  0.07004  Biso   1.000  H
  C11      1.0000 0.60790  0.58754  0.02557  Biso   1.000  C
  C12      1.0000 0.92519  0.51138  0.64472  Biso   1.000  C
  C13      1.0000 0.79108  0.48401  0.53455  Biso   1.000  C
  C14      1.0000 0.91770  0.55988  0.06198  Biso   1.000  C
  C15      1.0000 0.52140  0.59628  0.96624  Biso   1.000  C
  C16      1.0000 0.67227  0.61753  0.04874  Biso   1.000  C
  C17      1.0000 0.93652  0.53653  0.55509  Biso   1.000  C
  O3       1.0000 0.98465  0.51001  0.74428  Biso   1.000  O
  C18      1.0000 0.80117  0.50972  0.44560  Biso   1.000  C
  H10      1.0000 0.74244  0.46530  0.52564  Biso   1.000  H
  H11      1.0000 0.91678  0.57160  0.98644  Biso   1.000  H
  H12      1.0000 0.96171  0.53811  0.07004  Biso   1.000  H
  H13      1.0000 0.93674  0.57949  0.12020  Biso   1.000  H
  C19      1.0000 0.50267  0.63394  0.92558  Biso   1.000  C
  O4       1.0000 0.45762  0.56629  0.94748  Biso   1.000  O
  C20      1.0000 0.65176  0.65536  0.01156  Biso   1.000  C
  H14      1.0000 0.73101  0.61211  0.09067  Biso   1.000  H
  H15      1.0000 0.98771  0.55399  0.56197  Biso   1.000  H
  C21      1.0000 0.87425  0.53656  0.45570  Biso   1.000  C
  C22      1.0000 0.06081  0.53627  0.75753  Biso   1.000  C
  O5       1.0000 0.74093  0.51109  0.34647  Biso   1.000  O
  C23      1.0000 0.56786  0.66358  0.94536  Biso   1.000  C
  H16      1.0000 0.44403  0.63939  0.88331  Biso   1.000  H
  C24      1.0000 0.36269  0.57699  0.94646  Biso   1.000  C
  O6       1.0000 0.71147  0.68646  0.03618  Biso   1.000  O
  C25      1.0000 0.88557  0.56515  0.36132  Biso   1.000  C
  H17      1.0000 0.09887  0.53231  0.69599  Biso   1.000  H
  H18      1.0000 0.09853  0.53161  0.83069  Biso   1.000  H
  H19      1.0000 0.03769  0.56308  0.75506  Biso   1.000  H
  C26      1.0000 0.67845  0.47953  0.32431  Biso   1.000  C
  C27      1.0000 0.54865  0.70345  0.89138  Biso   1.000  C
  H20      1.0000 0.32466  0.55341  0.94706  Biso   1.000  H
  H21      1.0000 0.34238  0.59220  0.87797  Biso   1.000  H
  H22      1.0000 0.35595  0.59270  0.01385  Biso   1.000  H
  C28      1.0000 0.79920  0.67905  0.09949  Biso   1.000  C
  H23      1.0000 0.85437  0.55460  0.28867  Biso   1.000  H
  H24      1.0000 0.95239  0.56798  0.35419  Biso   1.000  H
  C29      1.0000 0.84490  0.60508  0.38229  Biso   1.000  C
  H25      1.0000 0.71336  0.45499  0.32627  Biso   1.000  H
  H26      1.0000 0.64280  0.48279  0.24920  Biso   1.000  H
  H27      1.0000 0.63601  0.47888  0.38212  Biso   1.000  H
  H28      1.0000 0.57554  0.72391  0.94434  Biso   1.000  H
  H29      1.0000 0.48075  0.70779  0.87678  Biso   1.000  H
  C30      1.0000 0.59031  0.70660  0.78010  Biso   1.000  C
  H30      1.0000 0.79031  0.66789  0.17334  Biso   1.000  H
  H31      1.0000 0.83400  0.70351  0.11104  Biso   1.000  H
  H32      1.0000 0.83395  0.66069  0.05790  Biso   1.000  H
  C31      1.0000 0.89725  0.63519  0.43966  Biso   1.000  C
  C32      1.0000 0.75068  0.61208  0.34825  Biso   1.000  C
  C33      1.0000 0.53523  0.70601  0.67435  Biso   1.000  C
  C34      1.0000 0.68574  0.70960  0.78197  Biso   1.000  C
  C35      1.0000 0.85214  0.66970  0.46436  Biso   1.000  C
  C36      1.0000 0.99778  0.63236  0.47955  Biso   1.000  C
  C37      1.0000 0.70641  0.64711  0.36896  Biso   1.000  C
  H33      1.0000 0.71481  0.59200  0.30895  Biso   1.000  H
  C38      1.0000 0.57679  0.70764  0.57470  Biso   1.000  C
  O7       1.0000 0.44084  0.70389  0.67520  Biso   1.000  O
  H34      1.0000 0.72408  0.71030  0.85310  Biso   1.000  H
  C39      1.0000 0.72703  0.71164  0.68241  Biso   1.000  C
  H35      1.0000 0.88765  0.68949  0.50536  Biso   1.000  H
  C40      1.0000 0.75859  0.67631  0.43202  Biso   1.000  C
  C41      1.0000 0.03031  0.63729  0.59439  Biso   1.000  C
  C42      1.0000 0.06335  0.62639  0.40367  Biso   1.000  C
  C43      1.0000 0.60739  0.65253  0.32245  Biso   1.000  C
  C44      1.0000 0.67256  0.71068  0.57716  Biso   1.000  C
  H36      1.0000 0.53879  0.70668  0.50349  Biso   1.000  H
  C45      1.0000 0.38378  0.70767  0.56961  Biso   1.000  C
  O8       1.0000 0.82176  0.71528  0.68080  Biso   1.000  O
  C46      1.0000 0.71640  0.71403  0.46827  Biso   1.000  C
  H37      1.0000 0.98744  0.64268  0.64668  Biso   1.000  H
  C47      1.0000 0.12407  0.63437  0.63335  Biso   1.000  C
  C48      1.0000 0.15654  0.62356  0.44246  Biso   1.000  C
  H38      1.0000 0.04306  0.62429  0.32465  Biso   1.000  H
  C49      1.0000 0.54025  0.62551  0.34579  Biso   1.000  C
  C50      1.0000 0.57901  0.68375  0.25039  Biso   1.000  C
  H39      1.0000 0.39511  0.73300  0.53591  Biso   1.000  H
  H40      1.0000 0.31836  0.70578  0.58158  Biso   1.000  H
  H41      1.0000 0.39845  0.68689  0.51826  Biso   1.000  H
  C51      1.0000 0.87861  0.71586  0.78638  Biso   1.000  C
  H42      1.0000 0.76538  0.73420  0.47845  Biso   1.000  H
  H43      1.0000 0.66845  0.72280  0.40681  Biso   1.000  H
  H44      1.0000 0.14506  0.63749  0.71186  Biso   1.000  H
  C52      1.0000 0.18781  0.62683  0.55713  Biso   1.000  C
  H45      1.0000 0.19981  0.61931  0.39001  Biso   1.000  H
  H46      1.0000 0.55817  0.60409  0.39451  Biso   1.000  H
  C53      1.0000 0.44880  0.62922  0.29987  Biso   1.000  C
  C54      1.0000 0.48761  0.68777  0.20430  Biso   1.000  C
  H47      1.0000 0.62349  0.70240  0.23299  Biso   1.000  H
  H48      1.0000 0.86546  0.73938  0.82840  Biso   1.000  H
  H49      1.0000 0.94409  0.71589  0.77365  Biso   1.000  H
  H50      1.0000 0.86594  0.69278  0.83035  Biso   1.000  H
  C55      1.0000 0.28745  0.62047  0.60169  Biso   1.000  C
  H51      1.0000 0.40437  0.61050  0.31701  Biso   1.000  H
  C56      1.0000 0.42129  0.66040  0.22823  Biso   1.000  C
  H52      1.0000 0.46947  0.70931  0.15600  Biso   1.000  H
  O9       1.0000 0.31853  0.62557  0.69913  Biso   1.000  O
  O10      1.0000 0.33631  0.60744  0.52208  Biso   1.000  O
  C57      1.0000 0.32451  0.66483  0.17400  Biso   1.000  C
  H53      1.0000 0.39039  0.60199  0.55153  Biso   1.000  H
  O11      1.0000 0.26761  0.63703  0.20056  Biso   1.000  O
  O12      1.0000 0.29930  0.69059  0.10737  Biso   1.000  O
  H54      1.0000 0.21649  0.63901  0.15897  Biso   1.000  H
  C58      1.0000 0.45661  0.52514  0.31880  Biso   1.000  C
  O13      1.0000 0.36040  0.53245  0.29002  Biso   1.000  O
  H55      1.0000 0.49076  0.53601  0.26006  Biso   1.000  H
  H56      1.0000 0.47816  0.53741  0.39196  Biso   1.000  H
  H57      1.0000 0.46732  0.49698  0.32440  Biso   1.000  H
  C59      1.0000 0.31610  0.51386  0.19590  Biso   1.000  C
  C60      1.0000 0.36270  0.49389  0.11772  Biso   1.000  C
  C61      1.0000 0.21928  0.51628  0.18062  Biso   1.000  C
  C62      1.0000 0.31452  0.47472  0.02478  Biso   1.000  C
  H58      1.0000 0.42871  0.49340  0.12808  Biso   1.000  H
  C63      1.0000 0.17142  0.49623  0.08938  Biso   1.000  C
  C64      1.0000 0.16832  0.53924  0.26329  Biso   1.000  C
  C65      1.0000 0.36631  0.45408  0.93880  Biso   1.000  C
  C66      1.0000 0.21772  0.47498  0.01367  Biso   1.000  C
  H59      1.0000 0.10548  0.49710  0.07843  Biso   1.000  H
  C67      1.0000 0.14924  0.51476  0.36387  Biso   1.000  C
  H60      1.0000 0.10867  0.54889  0.22323  Biso   1.000  H
  H61      1.0000 0.20607  0.56218  0.29070  Biso   1.000  H
  C68      1.0000 0.39202  0.41246  0.97437  Biso   1.000  C
  H62      1.0000 0.32713  0.45370  0.86428  Biso   1.000  H
  H63      1.0000 0.42365  0.46880  0.92989  Biso   1.000  H
  O14      1.0000 0.17196  0.45388  0.92471  Biso   1.000  O
  C69      1.0000 0.07473  0.48859  0.35521  Biso   1.000  C
  C70      1.0000 0.20884  0.51596  0.46538  Biso   1.000  C
  C71      1.0000 0.47852  0.40369  0.03370  Biso   1.000  C
  C72      1.0000 0.32765  0.38247  0.95120  Biso   1.000  C
  C73      1.0000 0.08229  0.44009  0.93796  Biso   1.000  C
  C74      1.0000 0.06347  0.46344  0.44484  Biso   1.000  C
  O15      1.0000 0.01534  0.48999  0.25565  Biso   1.000  O
  C75      1.0000 0.19875  0.49028  0.55433  Biso   1.000  C
  H64      1.0000 0.25748  0.53470  0.47429  Biso   1.000  H
  C76      1.0000 0.49726  0.36606  0.07444  Biso   1.000  C
  O16      1.0000 0.54230  0.43371  0.05245  Biso   1.000  O
  C77      1.0000 0.34816  0.34464  0.98846  Biso   1.000  C
  H65      1.0000 0.26892  0.38789  0.90935  Biso   1.000  H
  H66      1.0000 0.08321  0.42840  0.01350  Biso   1.000  H
  H67      1.0000 0.03820  0.46189  0.92989  Biso   1.000  H
  H68      1.0000 0.06325  0.42051  0.87973  Biso   1.000  H
  C78      1.0000 0.12567  0.46341  0.54423  Biso   1.000  C
  H69      1.0000 0.01228  0.44601  0.43796  Biso   1.000  H
  C79      1.0000 0.93911  0.46370  0.24241  Biso   1.000  C
  O17      1.0000 0.25899  0.48891  0.65347  Biso   1.000  O
  C80      1.0000 0.43213  0.33639  0.05458  Biso   1.000  C
  H70      1.0000 0.55589  0.36058  0.11662  Biso   1.000  H
  C81      1.0000 0.63723  0.42301  0.05347  Biso   1.000  C
  O18      1.0000 0.28845  0.31354  0.96376  Biso   1.000  O
  C82      1.0000 0.11442  0.43485  0.63861  Biso   1.000  C
  H71      1.0000 0.90105  0.46769  0.30394  Biso   1.000  H
  H72      1.0000 0.90139  0.46839  0.16933  Biso   1.000  H
  H73      1.0000 0.96230  0.43689  0.24487  Biso   1.000  H
  C83      1.0000 0.32147  0.52047  0.67562  Biso   1.000  C
  C84      1.0000 0.45127  0.29652  0.10856  Biso   1.000  C
  H74      1.0000 0.67532  0.44659  0.05288  Biso   1.000  H
  H75      1.0000 0.65760  0.40780  0.12197  Biso   1.000  H
  H76      1.0000 0.64404  0.40730  0.98608  Biso   1.000  H
  C85      1.0000 0.20071  0.32092  0.90044  Biso   1.000  C
  C86      1.0000 0.15509  0.39492  0.61765  Biso   1.000  C
  H77      1.0000 0.14555  0.44540  0.71127  Biso   1.000  H
  H78      1.0000 0.04753  0.43199  0.64574  Biso   1.000  H
  H79      1.0000 0.28656  0.54499  0.67367  Biso   1.000  H
  H80      1.0000 0.35712  0.51718  0.75074  Biso   1.000  H
  H81      1.0000 0.36398  0.52109  0.61790  Biso   1.000  H
  C87      1.0000 0.40961  0.29338  0.21983  Biso   1.000  C
  H82      1.0000 0.42438  0.27609  0.05559  Biso   1.000  H
  H83      1.0000 0.51917  0.29221  0.12316  Biso   1.000  H
  H84      1.0000 0.20961  0.33211  0.82660  Biso   1.000  H
  H85      1.0000 0.16591  0.29649  0.88890  Biso   1.000  H
  H86      1.0000 0.16603  0.33931  0.94203  Biso   1.000  H
  C88      1.0000 0.10274  0.36481  0.56027  Biso   1.000  C
  C89      1.0000 0.24923  0.38792  0.65168  Biso   1.000  C
  C90      1.0000 0.31418  0.29040  0.21796  Biso   1.000  C
  C91      1.0000 0.46468  0.29399  0.32559  Biso   1.000  C
  C92      1.0000 0.14778  0.33030  0.53557  Biso   1.000  C
  C93      1.0000 0.00214  0.36761  0.52038  Biso   1.000  C
  C94      1.0000 0.29358  0.35289  0.63097  Biso   1.000  C
  H87      1.0000 0.28518  0.40800  0.69098  Biso   1.000  H
  C95      1.0000 0.27295  0.28836  0.31752  Biso   1.000  C
  H88      1.0000 0.27591  0.28970  0.14692  Biso   1.000  H
  C96      1.0000 0.42314  0.29236  0.42532  Biso   1.000  C
  O19      1.0000 0.55915  0.29611  0.32474  Biso   1.000  O
  C97      1.0000 0.24140  0.32369  0.56791  Biso   1.000  C
  H89      1.0000 0.11227  0.31048  0.49458  Biso   1.000  H
  C98      1.0000 0.96968  0.36271  0.40554  Biso   1.000  C
  C99      1.0000 0.93657  0.37358  0.59626  Biso   1.000  C
  C100     1.0000 0.39252  0.34747  0.67749  Biso   1.000  C
  C101     1.0000 0.32743  0.28932  0.42277  Biso   1.000  C
  O20      1.0000 0.17822  0.28472  0.31914  Biso   1.000  O
  H90      1.0000 0.46120  0.29329  0.49644  Biso   1.000  H
  C102     1.0000 0.61621  0.29233  0.43041  Biso   1.000  C
  C103     1.0000 0.28359  0.28597  0.53167  Biso   1.000  C
  H91      1.0000 0.01248  0.35729  0.35326  Biso   1.000  H
  C104     1.0000 0.87585  0.36563  0.36658  Biso   1.000  C
  C105     1.0000 0.84339  0.37644  0.55756  Biso   1.000  C
  H92      1.0000 0.95686  0.37571  0.67528  Biso   1.000  H
  C106     1.0000 0.45967  0.37449  0.65415  Biso   1.000  C
  C107     1.0000 0.42092  0.31625  0.74963  Biso   1.000  C
  C108     1.0000 0.12131  0.28414  0.21355  Biso   1.000  C
  H93      1.0000 0.60489  0.26700  0.46411  Biso   1.000  H
  H94      1.0000 0.68156  0.29419  0.41836  Biso   1.000  H
  H95      1.0000 0.60147  0.31311  0.48168  Biso   1.000  H
  H96      1.0000 0.23461  0.26580  0.52148  Biso   1.000  H
  H97      1.0000 0.33148  0.27720  0.59320  Biso   1.000  H
  H98      1.0000 0.85486  0.36251  0.28807  Biso   1.000  H
  C109     1.0000 0.81211  0.37317  0.44280  Biso   1.000  C
  H99      1.0000 0.80019  0.38069  0.61001  Biso   1.000  H
  H100     1.0000 0.44176  0.39591  0.60551  Biso   1.000  H
  C110     1.0000 0.55112  0.37078  0.70006  Biso   1.000  C
  C111     1.0000 0.51231  0.31220  0.79564  Biso   1.000  C
  H101     1.0000 0.37643  0.29760  0.76695  Biso   1.000  H
  H102     1.0000 0.13447  0.26059  0.17162  Biso   1.000  H
  H103     1.0000 0.05589  0.28411  0.22628  Biso   1.000  H
  H104     1.0000 0.13398  0.30719  0.16958  Biso   1.000  H
  C112     1.0000 0.71247  0.37953  0.39824  Biso   1.000  C
  H105     1.0000 0.59556  0.38950  0.68300  Biso   1.000  H
  C113     1.0000 0.57870  0.33960  0.77170  Biso   1.000  C
  H106     1.0000 0.53045  0.29069  0.84393  Biso   1.000  H
  O21      1.0000 0.68146  0.37443  0.30080  Biso   1.000  O
  O22      1.0000 0.66361  0.39256  0.47786  Biso   1.000  O
  C114     1.0000 0.67541  0.33517  0.82594  Biso   1.000  C
  H107     1.0000 0.60960  0.39801  0.44840  Biso   1.000  H
  O23      1.0000 0.73230  0.36297  0.79937  Biso   1.000  O
  O24      1.0000 0.70062  0.30941  0.89256  Biso   1.000  O
  H108     1.0000 0.78343  0.36099  0.84096  Biso   1.000  H
  C115     1.0000 0.54868  0.79654  0.39137  Biso   1.000  C
  C116     1.0000 0.59035  0.79339  0.28018  Biso   1.000  C
  H109     1.0000 0.57558  0.77611  0.44441  Biso   1.000  H
  H110     1.0000 0.48079  0.79219  0.37677  Biso   1.000  H
  C117     1.0000 0.56790  0.83641  0.44535  Biso   1.000  C
  C118     1.0000 0.53528  0.79397  0.17442  Biso   1.000  C
  C119     1.0000 0.68579  0.79042  0.28205  Biso   1.000  C
  C120     1.0000 0.65172  0.84466  0.51147  Biso   1.000  C
  C121     1.0000 0.50270  0.86605  0.42557  Biso   1.000  C
  O25      1.0000 0.44088  0.79610  0.17527  Biso   1.000  O
  C122     1.0000 0.57683  0.79234  0.07469  Biso   1.000  C
  C123     1.0000 0.72708  0.78835  0.18249  Biso   1.000  C
  H111     1.0000 0.72405  0.78969  0.35309  Biso   1.000  H
  C124     1.0000 0.67224  0.88246  0.54873  Biso   1.000  C
  O26      1.0000 0.71143  0.81353  0.53608  Biso   1.000  O
  C125     1.0000 0.52144  0.90370  0.46631  Biso   1.000  C
  H112     1.0000 0.44408  0.86060  0.38339  Biso   1.000  H
  C126     1.0000 0.38382  0.79231  0.06960  Biso   1.000  C
  C127     1.0000 0.67253  0.78931  0.07715  Biso   1.000  C
  H113     1.0000 0.53882  0.79330  0.00348  Biso   1.000  H
  O27      1.0000 0.82173  0.78470  0.18079  Biso   1.000  O
  H114     1.0000 0.73097  0.88788  0.59057  Biso   1.000  H
  C128     1.0000 0.60787  0.91245  0.52556  Biso   1.000  C
  C129     1.0000 0.79916  0.82093  0.59940  Biso   1.000  C
  O28      1.0000 0.45766  0.93369  0.44756  Biso   1.000  O
  H115     1.0000 0.39508  0.76698  0.03590  Biso   1.000  H
  H116     1.0000 0.31840  0.79421  0.08157  Biso   1.000  H
  H117     1.0000 0.39849  0.81309  0.01833  Biso   1.000  H
  C130     1.0000 0.71630  0.78599  0.96826  Biso   1.000  C
  C131     1.0000 0.87865  0.78412  0.28637  Biso   1.000  C
  C132     1.0000 0.63357  0.95407  0.56104  Biso   1.000  C
  H118     1.0000 0.79027  0.83209  0.67324  Biso   1.000  H
  H119     1.0000 0.83396  0.79648  0.61094  Biso   1.000  H
  H120     1.0000 0.83385  0.83929  0.55790  Biso   1.000  H
  C133     1.0000 0.36273  0.92300  0.44654  Biso   1.000  C
  H121     1.0000 0.76535  0.76579  0.97844  Biso   1.000  H
  H122     1.0000 0.66841  0.77719  0.90672  Biso   1.000  H
  C134     1.0000 0.75848  0.82367  0.93201  Biso   1.000  C
  H123     1.0000 0.86550  0.76060  0.32839  Biso   1.000  H
  H124     1.0000 0.94407  0.78409  0.27373  Biso   1.000  H
  H125     1.0000 0.86598  0.80720  0.33043  Biso   1.000  H
  H126     1.0000 0.67274  0.95369  0.63556  Biso   1.000  H
  H127     1.0000 0.57630  0.96879  0.56995  Biso   1.000  H
  C135     1.0000 0.68544  0.97473  0.47523  Biso   1.000  C
  H128     1.0000 0.35584  0.90729  0.51376  Biso   1.000  H
  H129     1.0000 0.32470  0.94661  0.44705  Biso   1.000  H
  H130     1.0000 0.34235  0.90778  0.37796  Biso   1.000  H
  C136     1.0000 0.85210  0.83029  0.96427  Biso   1.000  C
  C137     1.0000 0.70631  0.85288  0.86895  Biso   1.000  C
  C138     1.0000 0.78224  0.97496  0.48626  Biso   1.000  C
  C139     1.0000 0.63726  0.99391  0.38220  Biso   1.000  C
  H131     1.0000 0.88769  0.81050  0.00543  Biso   1.000  H
  C140     1.0000 0.89721  0.86480  0.93965  Biso   1.000  C
  C141     1.0000 0.75064  0.88791  0.84816  Biso   1.000  C
  C142     1.0000 0.60736  0.84745  0.82244  Biso   1.000  C
  C143     1.0000 0.82855  0.99624  0.41063  Biso   1.000  C
  O29      1.0000 0.82792  0.95389  0.57513  Biso   1.000  O
  H132     1.0000 0.57125  0.99338  0.37185  Biso   1.000  H
  C144     1.0000 0.68394  0.01384  0.30411  Biso   1.000  C
  C145     1.0000 0.84486  0.89490  0.88219  Biso   1.000  C
  C146     1.0000 0.99775  0.86762  0.97954  Biso   1.000  C
  H133     1.0000 0.71477  0.90799  0.80894  Biso   1.000  H
  C147     1.0000 0.54021  0.87447  0.84569  Biso   1.000  C
  C148     1.0000 0.57897  0.81624  0.75029  Biso   1.000  C
  H134     1.0000 0.89448  0.99709  0.42158  Biso   1.000  H
  C149     1.0000 0.78068  0.01629  0.31931  Biso   1.000  C
  C150     1.0000 0.91767  0.94011  0.56197  Biso   1.000  C
  O30      1.0000 0.63956  0.03244  0.20990  Biso   1.000  O
  C151     1.0000 0.88546  0.93483  0.86123  Biso   1.000  C
  C152     1.0000 0.06332  0.87360  0.90366  Biso   1.000  C
  C153     1.0000 0.03036  0.86270  0.09447  Biso   1.000  C
  H135     1.0000 0.55812  0.89589  0.89441  Biso   1.000  H
  C154     1.0000 0.44876  0.87077  0.79978  Biso   1.000  C
  C155     1.0000 0.48757  0.81222  0.70420  Biso   1.000  C
  H136     1.0000 0.62345  0.79759  0.73289  Biso   1.000  H
  C156     1.0000 0.83171  0.03926  0.23672  Biso   1.000  C
  H137     1.0000 0.96167  0.96188  0.56995  Biso   1.000  H
  H138     1.0000 0.93670  0.92049  0.62019  Biso   1.000  H
  H139     1.0000 0.91676  0.92839  0.48651  Biso   1.000  H
  C157     1.0000 0.54341  0.02512  0.18113  Biso   1.000  C
  H140     1.0000 0.85433  0.94538  0.78866  Biso   1.000  H
  H141     1.0000 0.95235  0.93200  0.85410  Biso   1.000  H
  C158     1.0000 0.87421  0.96342  0.95561  Biso   1.000  C
  C159     1.0000 0.15650  0.87642  0.94237  Biso   1.000  C
  H142     1.0000 0.04303  0.87570  0.82464  Biso   1.000  H
  H143     1.0000 0.98748  0.85731  0.14667  Biso   1.000  H
  C160     1.0000 0.12411  0.86561  0.13334  Biso   1.000  C
  H144     1.0000 0.40433  0.88948  0.81692  Biso   1.000  H
  C161     1.0000 0.42125  0.83958  0.72814  Biso   1.000  C
  H145     1.0000 0.46943  0.79068  0.65591  Biso   1.000  H
  C162     1.0000 0.85071  0.01475  0.13606  Biso   1.000  C
  H146     1.0000 0.89129  0.04888  0.27678  Biso   1.000  H
  H147     1.0000 0.79390  0.06220  0.20931  Biso   1.000  H
  H148     1.0000 0.53272  0.99700  0.17561  Biso   1.000  H
  H149     1.0000 0.50919  0.03599  0.23986  Biso   1.000  H
  H150     1.0000 0.52180  0.03739  0.10796  Biso   1.000  H
  C163     1.0000 0.93655  0.96345  0.05509  Biso   1.000  C
  C164     1.0000 0.80113  0.99027  0.94551  Biso   1.000  C
  H151     1.0000 0.19976  0.88068  0.88991  Biso   1.000  H
  C165     1.0000 0.18786  0.87316  0.05721  Biso   1.000  C
  H152     1.0000 0.14510  0.86249  0.21185  Biso   1.000  H
  C166     1.0000 0.32446  0.83515  0.67390  Biso   1.000  C
  C167     1.0000 0.92523  0.98860  0.14480  Biso   1.000  C
  C168     1.0000 0.79113  0.01597  0.03463  Biso   1.000  C
  H153     1.0000 0.98767  0.94599  0.06196  Biso   1.000  H
  O31      1.0000 0.74089  0.98890  0.84637  Biso   1.000  O
  C169     1.0000 0.28749  0.87951  0.10168  Biso   1.000  C
  O32      1.0000 0.26757  0.86296  0.70047  Biso   1.000  O
  O33      1.0000 0.29927  0.80939  0.60736  Biso   1.000  O
  O34      1.0000 0.98469  0.98997  0.24428  Biso   1.000  O
  H154     1.0000 0.74248  0.03468  0.02572  Biso   1.000  H
  C170     1.0000 0.67841  0.02046  0.82422  Biso   1.000  C
  O35      1.0000 0.31856  0.87441  0.19912  Biso   1.000  O
  O36      1.0000 0.33636  0.89254  0.02215  Biso   1.000  O
  H155     1.0000 0.21645  0.86101  0.65896  Biso   1.000  H
  C171     1.0000 0.06084  0.96371  0.25752  Biso   1.000  C
  H156     1.0000 0.71333  0.04500  0.82626  Biso   1.000  H
  H157     1.0000 0.64275  0.01720  0.74910  Biso   1.000  H
  H158     1.0000 0.63590  0.02110  0.88202  Biso   1.000  H
  H159     1.0000 0.39043  0.89799  0.05161  Biso   1.000  H
  H160     1.0000 0.09890  0.96768  0.19598  Biso   1.000  H
  H161     1.0000 0.09857  0.96838  0.33068  Biso   1.000  H
  H162     1.0000 0.03766  0.93690  0.25505  Biso   1.000  H
  C172     1.0000 0.45124  0.20346  0.60857  Biso   1.000  C
  C173     1.0000 0.43209  0.16359  0.55459  Biso   1.000  C
  H163     1.0000 0.42435  0.22389  0.55560  Biso   1.000  H
  H164     1.0000 0.51920  0.20781  0.62317  Biso   1.000  H
  C174     1.0000 0.40964  0.20661  0.71984  Biso   1.000  C
  C175     1.0000 0.34820  0.15534  0.48847  Biso   1.000  C
  C176     1.0000 0.49722  0.13395  0.57436  Biso   1.000  C
  C177     1.0000 0.46465  0.20603  0.82560  Biso   1.000  C
  C178     1.0000 0.31414  0.20958  0.71797  Biso   1.000  C
  O37      1.0000 0.28856  0.18647  0.46385  Biso   1.000  O
  C179     1.0000 0.32768  0.11754  0.45121  Biso   1.000  C
  C180     1.0000 0.47854  0.09630  0.53362  Biso   1.000  C
  H165     1.0000 0.55584  0.13940  0.61655  Biso   1.000  H
  C181     1.0000 0.42316  0.20766  0.92524  Biso   1.000  C
  O38      1.0000 0.55911  0.20390  0.82475  Biso   1.000  O
  H166     1.0000 0.27587  0.21031  0.64685  Biso   1.000  H
  C182     1.0000 0.27291  0.21165  0.81745  Biso   1.000  C
  C183     1.0000 0.20076  0.17907  0.40053  Biso   1.000  C
  H167     1.0000 0.26895  0.11209  0.40936  Biso   1.000  H
  C184     1.0000 0.39205  0.08752  0.47438  Biso   1.000  C
  O39      1.0000 0.54225  0.06631  0.55238  Biso   1.000  O
  C185     1.0000 0.32739  0.21069  0.92278  Biso   1.000  C
  H168     1.0000 0.46117  0.20670  0.99645  Biso   1.000  H
  C186     1.0000 0.61617  0.20769  0.93033  Biso   1.000  C
  O40      1.0000 0.17819  0.21527  0.81915  Biso   1.000  O
  H169     1.0000 0.20965  0.16791  0.32669  Biso   1.000  H
  H170     1.0000 0.16596  0.20349  0.38899  Biso   1.000  H
  H171     1.0000 0.16607  0.16071  0.44204  Biso   1.000  H
  C187     1.0000 0.36642  0.04590  0.43890  Biso   1.000  C
  C188     1.0000 0.63719  0.07700  0.55340  Biso   1.000  C
  C189     1.0000 0.28363  0.21401  0.03176  Biso   1.000  C
  H172     1.0000 0.60484  0.23299  0.96403  Biso   1.000  H
  H173     1.0000 0.68152  0.20579  0.91837  Biso   1.000  H
  H174     1.0000 0.60143  0.18691  0.98169  Biso   1.000  H
  C190     1.0000 0.12127  0.21588  0.71356  Biso   1.000  C
  H175     1.0000 0.32717  0.04631  0.36438  Biso   1.000  H
  H176     1.0000 0.42369  0.03119  0.42999  Biso   1.000  H
  C191     1.0000 0.31449  0.02527  0.52479  Biso   1.000  C
  H177     1.0000 0.64408  0.09271  0.48617  Biso   1.000  H
  H178     1.0000 0.67529  0.05339  0.55289  Biso   1.000  H
  H179     1.0000 0.65757  0.09219  0.62198  Biso   1.000  H
  H180     1.0000 0.23464  0.23421  0.02149  Biso   1.000  H
  H181     1.0000 0.33151  0.22279  0.09321  Biso   1.000  H
  C192     1.0000 0.24144  0.17630  0.06800  Biso   1.000  C
  H182     1.0000 0.13449  0.23940  0.67155  Biso   1.000  H
  H183     1.0000 0.05586  0.21591  0.72629  Biso   1.000  H
  H184     1.0000 0.13394  0.19280  0.66959  Biso   1.000  H
  C193     1.0000 0.21768  0.02504  0.51367  Biso   1.000  C
  C194     1.0000 0.36266  0.00609  0.61773  Biso   1.000  C
  C195     1.0000 0.14782  0.16971  0.03567  Biso   1.000  C
  C196     1.0000 0.29362  0.14712  0.13107  Biso   1.000  C
  C197     1.0000 0.17137  0.00376  0.58930  Biso   1.000  C
  O41      1.0000 0.17200  0.04611  0.42481  Biso   1.000  O
  H185     1.0000 0.42867  0.00659  0.62809  Biso   1.000  H
  C198     1.0000 0.31605  0.98616  0.69582  Biso   1.000  C
  H186     1.0000 0.11224  0.18950  0.99459  Biso   1.000  H
  C199     1.0000 0.10278  0.13520  0.06028  Biso   1.000  C
  C200     1.0000 0.24928  0.11209  0.15178  Biso   1.000  C
  C201     1.0000 0.39257  0.15252  0.17758  Biso   1.000  C
  H187     1.0000 0.10544  0.00291  0.57835  Biso   1.000  H
  C202     1.0000 0.21924  0.98371  0.68063  Biso   1.000  C
  C203     1.0000 0.08233  0.05989  0.43805  Biso   1.000  C
  O42      1.0000 0.36036  0.96756  0.79003  Biso   1.000  O
  C204     1.0000 0.15513  0.10510  0.11774  Biso   1.000  C
  C205     1.0000 0.00224  0.13238  0.02039  Biso   1.000  C
  H188     1.0000 0.28521  0.09201  0.19099  Biso   1.000  H
  C206     1.0000 0.45971  0.12553  0.15424  Biso   1.000  C
  C207     1.0000 0.42095  0.18376  0.24964  Biso   1.000  C
  C208     1.0000 0.16828  0.96074  0.76321  Biso   1.000  C
  H189     1.0000 0.03825  0.03809  0.42999  Biso   1.000  H
  H190     1.0000 0.06328  0.07951  0.37974  Biso   1.000  H
  H191     1.0000 0.08317  0.07161  0.51350  Biso   1.000  H
  C209     1.0000 0.45658  0.97485  0.81881  Biso   1.000  C
  C210     1.0000 0.11446  0.06514  0.13871  Biso   1.000  C
  C211     1.0000 0.96963  0.13730  0.90547  Biso   1.000  C
  C212     1.0000 0.93667  0.12640  0.09627  Biso   1.000  C
  H192     1.0000 0.44179  0.10411  0.10552  Biso   1.000  H
  C213     1.0000 0.55123  0.12920  0.20016  Biso   1.000  C
  C214     1.0000 0.51235  0.18778  0.29573  Biso   1.000  C
  H193     1.0000 0.37654  0.20238  0.26704  Biso   1.000  H
  H194     1.0000 0.10863  0.95109  0.72315  Biso   1.000  H
  H195     1.0000 0.20602  0.93780  0.79063  Biso   1.000  H
  C215     1.0000 0.14921  0.98525  0.86388  Biso   1.000  C
  H196     1.0000 0.46727  0.00300  0.82432  Biso   1.000  H
  H197     1.0000 0.49079  0.96401  0.76007  Biso   1.000  H
  H198     1.0000 0.47812  0.96261  0.89197  Biso   1.000  H
  C216     1.0000 0.12571  0.03658  0.04432  Biso   1.000  C
  H199     1.0000 0.14559  0.05459  0.21136  Biso   1.000  H
  H200     1.0000 0.04764  0.06800  0.14584  Biso   1.000  H
  H201     1.0000 0.01244  0.14269  0.85327  Biso   1.000  H
  C217     1.0000 0.87581  0.13436  0.86659  Biso   1.000  C
  C218     1.0000 0.84342  0.12355  0.05757  Biso   1.000  C
  H202     1.0000 0.95689  0.12430  0.17529  Biso   1.000  H
  H203     1.0000 0.59559  0.11049  0.18301  Biso   1.000  H
  C219     1.0000 0.57874  0.16042  0.27179  Biso   1.000  C
  H204     1.0000 0.53049  0.20929  0.34402  Biso   1.000  H
  C220     1.0000 0.07469  0.01140  0.85522  Biso   1.000  C
  C221     1.0000 0.20879  0.98403  0.96530  Biso   1.000  C
  C222     1.0000 0.06344  0.03655  0.94485  Biso   1.000  C
  C223     1.0000 0.19879  0.00973  0.05442  Biso   1.000  C
  H205     1.0000 0.85489  0.13751  0.78808  Biso   1.000  H
  C224     1.0000 0.81207  0.12681  0.94281  Biso   1.000  C
  H206     1.0000 0.80022  0.11929  0.11002  Biso   1.000  H
  C225     1.0000 0.67545  0.16485  0.32603  Biso   1.000  C
  O43      1.0000 0.01530  0.01000  0.75566  Biso   1.000  O
  H207     1.0000 0.25744  0.96529  0.97422  Biso   1.000  H
  H208     1.0000 0.01225  0.05401  0.93797  Biso   1.000  H
  O44      1.0000 0.25903  0.01110  0.15356  Biso   1.000  O
  C226     1.0000 0.71243  0.12049  0.89825  Biso   1.000  C
  O45      1.0000 0.73235  0.13701  0.29946  Biso   1.000  O
  O46      1.0000 0.70065  0.19058  0.39257  Biso   1.000  O
  C227     1.0000 0.93908  0.03629  0.74242  Biso   1.000  C
  C228     1.0000 0.32158  0.97951  0.17571  Biso   1.000  C
  O47      1.0000 0.68142  0.12559  0.80081  Biso   1.000  O
  O48      1.0000 0.66357  0.10743  0.97787  Biso   1.000  O
  H209     1.0000 0.78354  0.13899  0.34105  Biso   1.000  H
  H210     1.0000 0.90109  0.03229  0.80395  Biso   1.000  H
  H211     1.0000 0.90135  0.03159  0.66925  Biso   1.000  H
  H212     1.0000 0.96226  0.06310  0.74488  Biso   1.000  H
  H213     1.0000 0.28660  0.95500  0.17376  Biso   1.000  H
  H214     1.0000 0.35723  0.98280  0.25083  Biso   1.000  H
  H215     1.0000 0.36402  0.97890  0.11791  Biso   1.000  H
  H216     1.0000 0.60956  0.10201  0.94833  Biso   1.000  H
  Ne1      1.0000 0.26095  0.39261  0.35811  Biso   1.000  Ne
  He1      1.0000 0.46689  0.40774  0.35397  Biso   1.000  He
  He2      1.0000 0.06093  0.37534  0.15965  Biso   1.000  He
  Ar1      1.0000 0.27117  0.40573  0.30926  Biso   1.000  Ar
  Ne2      1.0000 0.26096  0.10739  0.85813  Biso   1.000  Ne
  He3      1.0000 0.47559  0.09220  0.85658  Biso   1.000  He
  He4      1.0000 0.06142  0.12457  0.66006  Biso   1.000  He
  Ar2      1.0000 0.27115  0.09428  0.80931  Biso   1.000  Ar
  Ne3      1.0000 0.73899  0.60739  0.64184  Biso   1.000  Ne
  He5      1.0000 0.93879  0.62461  0.84012  Biso   1.000  He
  He6      1.0000 0.51531  0.59211  0.64062  Biso   1.000  He
  Ar3      1.0000 0.72879  0.59427  0.69064  Biso   1.000  Ar
  Ne4      1.0000 0.73899  0.89260  0.14182  Biso   1.000  Ne
  He7      1.0000 0.93760  0.87558  0.33925  Biso   1.000  He
  He8      1.0000 0.51199  0.90789  0.13954  Biso   1.000  He
  Ar4      1.0000 0.72880  0.90572  0.19062  Biso   1.000  Ar
