data_image0
_cell_length_a       14.243
_cell_length_b       17.128
_cell_length_c       11.384
_cell_angle_alpha    98.68
_cell_angle_beta     107.74
_cell_angle_gamma    106.73

_symmetry_space_group_name_H-M    "P 1"
_symmetry_int_tables_number       1

loop_
  _symmetry_equiv_pos_as_xyz
  'x, y, z'

loop_
  _atom_site_label
  _atom_site_occupancy
  _atom_site_fract_x
  _atom_site_fract_y
  _atom_site_fract_z
  _atom_site_thermal_displace_type
  _atom_site_B_iso_or_equiv
  _atom_site_type_symbol
  C1       1.0000 0.58666  0.61599  0.52317  Biso   1.000  C
  C2       1.0000 0.62951  0.56932  0.45781  Biso   1.000  C
  C3       1.0000 0.52823  0.66091  0.46039  Biso   1.000  C
  C4       1.0000 0.61221  0.56597  0.33158  Biso   1.000  C
  C5       1.0000 0.69301  0.52088  0.52279  Biso   1.000  C
  C6       1.0000 0.47949  0.71008  0.52823  Biso   1.000  C
  C7       1.0000 0.51199  0.65682  0.33378  Biso   1.000  C
  C8       1.0000 0.55561  0.61092  0.26966  Biso   1.000  C
  N1       1.0000 0.80838  0.56948  0.56273  Biso   1.000  N
  N2       1.0000 0.53639  0.80392  0.55442  Biso   1.000  N
  C9       1.0000 0.87397  0.51527  0.59369  Biso   1.000  C
  H1       1.0000 0.83368  0.59942  0.48944  Biso   1.000  H
  H2       1.0000 0.83838  0.62031  0.64510  Biso   1.000  H
  C10      1.0000 0.47609  0.85373  0.59780  Biso   1.000  C
  H3       1.0000 0.52182  0.81890  0.45771  Biso   1.000  H
  H4       1.0000 0.60916  0.83488  0.63019  Biso   1.000  H
  C11      1.0000 0.98979  0.56862  0.64691  Biso   1.000  C
  C12      1.0000 0.53803  0.94770  0.63354  Biso   1.000  C
  N3       1.0000 0.01990  0.62622  0.77343  Biso   1.000  N
  N4       1.0000 0.62901  0.97268  0.75508  Biso   1.000  N
  C13      1.0000 0.11643  0.70158  0.80554  Biso   1.000  C
  C14      1.0000 0.02909  0.57983  0.87252  Biso   1.000  C
  C15      1.0000 0.59798  0.99248  0.86536  Biso   1.000  C
  C16      1.0000 0.71872  0.04521  0.76063  Biso   1.000  C
  C17      1.0000 0.10688  0.78308  0.86612  Biso   1.000  C
  C18      1.0000 0.00076  0.61559  0.98127  Biso   1.000  C
  C19      1.0000 0.66370  0.97200  0.98098  Biso   1.000  C
  C20      1.0000 0.76268  0.02097  0.66278  Biso   1.000  C
  H5       1.0000 0.77630  0.05653  0.86593  Biso   1.000  H
  N5       1.0000 0.01613  0.80129  0.78213  Biso   1.000  N
  N6       1.0000 0.88833  0.60918  0.93750  Biso   1.000  N
  N7       1.0000 0.64094  0.87839  0.95193  Biso   1.000  N
  N8       1.0000 0.87532  0.07560  0.70052  Biso   1.000  N
  H6       1.0000 0.94244  0.75396  0.77286  Biso   1.000  H
  C21      1.0000 0.01925  0.80533  0.65284  Biso   1.000  C
  H7       1.0000 0.03634  0.86983  0.83545  Biso   1.000  H
  H8       1.0000 0.84420  0.55198  0.87998  Biso   1.000  H
  H9       1.0000 0.86967  0.65049  0.87711  Biso   1.000  H
  C22      1.0000 0.85818  0.62868  0.05207  Biso   1.000  C
  H10      1.0000 0.54849  0.84902  0.91361  Biso   1.000  H
  H11      1.0000 0.66283  0.84888  0.88600  Biso   1.000  H
  C23      1.0000 0.70004  0.85262  0.06344  Biso   1.000  C
  C24      1.0000 0.92119  0.05991  0.59923  Biso   1.000  C
  H12      1.0000 0.93204  0.07224  0.79034  Biso   1.000  H
  H13      1.0000 0.87788  0.13918  0.71208  Biso   1.000  H
  C25      1.0000 0.94434  0.84333  0.58241  Biso   1.000  C
  C26      1.0000 0.76038  0.65121  0.01949  Biso   1.000  C
  C27      1.0000 0.68371  0.75967  0.02618  Biso   1.000  C
  C28      1.0000 0.89971  0.96707  0.55451  Biso   1.000  C
  C29      1.0000 0.96468  0.92942  0.62197  Biso   1.000  C
  C30      1.0000 0.85769  0.79454  0.47444  Biso   1.000  C
  C31      1.0000 0.66141  0.59062  0.96559  Biso   1.000  C
  C32      1.0000 0.77109  0.73562  0.04787  Biso   1.000  C
  C33      1.0000 0.58363  0.69792  0.97372  Biso   1.000  C
  C34      1.0000 0.81382  0.91722  0.44424  Biso   1.000  C
  C35      1.0000 0.79231  0.83098  0.40525  Biso   1.000  C
  C36      1.0000 0.57325  0.61347  0.94190  Biso   1.000  C
  C37      1.0000 0.41327  0.38399  0.47682  Biso   1.000  C
  C38      1.0000 0.47179  0.33912  0.53961  Biso   1.000  C
  C39      1.0000 0.37052  0.43071  0.54219  Biso   1.000  C
  C40      1.0000 0.52052  0.28990  0.47176  Biso   1.000  C
  C41      1.0000 0.48804  0.34322  0.66622  Biso   1.000  C
  C42      1.0000 0.38780  0.43401  0.66841  Biso   1.000  C
  C43      1.0000 0.30699  0.47910  0.47721  Biso   1.000  C
  N9       1.0000 0.46363  0.19612  0.44558  Biso   1.000  N
  C44      1.0000 0.44442  0.38912  0.73034  Biso   1.000  C
  N10      1.0000 0.19162  0.43049  0.43726  Biso   1.000  N
  C45      1.0000 0.52387  0.14631  0.40220  Biso   1.000  C
  H14      1.0000 0.47819  0.18108  0.54228  Biso   1.000  H
  H15      1.0000 0.39077  0.16509  0.36980  Biso   1.000  H
  C46      1.0000 0.12597  0.48470  0.40630  Biso   1.000  C
  H16      1.0000 0.16627  0.40061  0.51056  Biso   1.000  H
  H17      1.0000 0.16164  0.37973  0.35490  Biso   1.000  H
  C47      1.0000 0.46197  0.05228  0.36646  Biso   1.000  C
  C48      1.0000 0.01017  0.43142  0.35308  Biso   1.000  C
  N11      1.0000 0.37100  0.02729  0.24491  Biso   1.000  N
  N12      1.0000 0.98013  0.37381  0.22656  Biso   1.000  N
  C49      1.0000 0.40202  0.00749  0.13464  Biso   1.000  C
  C50      1.0000 0.28130  0.95482  0.23937  Biso   1.000  C
  C51      1.0000 0.88357  0.29840  0.19446  Biso   1.000  C
  C52      1.0000 0.97086  0.42020  0.12747  Biso   1.000  C
  C53      1.0000 0.33630  0.02798  0.01902  Biso   1.000  C
  C54      1.0000 0.23732  0.97900  0.33722  Biso   1.000  C
  H18      1.0000 0.22372  0.94350  0.13407  Biso   1.000  H
  C55      1.0000 0.89312  0.21690  0.13387  Biso   1.000  C
  C56      1.0000 0.99917  0.38439  0.01873  Biso   1.000  C
  N13      1.0000 0.35907  0.12158  0.04806  Biso   1.000  N
  N14      1.0000 0.12469  0.92437  0.29947  Biso   1.000  N
  N15      1.0000 0.98387  0.19868  0.21787  Biso   1.000  N
  N16      1.0000 0.11168  0.39080  0.06249  Biso   1.000  N
  H19      1.0000 0.45153  0.15101  0.08638  Biso   1.000  H
  H20      1.0000 0.33718  0.15109  0.11400  Biso   1.000  H
  C57      1.0000 0.30002  0.14743  0.93665  Biso   1.000  C
  C58      1.0000 0.07877  0.94012  0.40076  Biso   1.000  C
  H21      1.0000 0.06801  0.92782  0.20975  Biso   1.000  H
  H22      1.0000 0.12212  0.86080  0.28791  Biso   1.000  H
  H23      1.0000 0.05749  0.24601  0.22714  Biso   1.000  H
  C59      1.0000 0.98077  0.19470  0.34716  Biso   1.000  C
  H24      1.0000 0.96371  0.13022  0.16464  Biso   1.000  H
  H25      1.0000 0.15581  0.44799  0.12002  Biso   1.000  H
  H26      1.0000 0.13027  0.34948  0.12289  Biso   1.000  H
  C60      1.0000 0.14182  0.37129  0.94792  Biso   1.000  C
  C61      1.0000 0.31630  0.24031  0.97382  Biso   1.000  C
  C62      1.0000 0.10029  0.03290  0.44548  Biso   1.000  C
  C63      1.0000 0.05568  0.15671  0.41758  Biso   1.000  C
  C64      1.0000 0.23964  0.34882  0.98051  Biso   1.000  C
  C65      1.0000 0.41639  0.30211  0.02628  Biso   1.000  C
  C66      1.0000 0.22893  0.26442  0.95213  Biso   1.000  C
  C67      1.0000 0.03534  0.07061  0.37802  Biso   1.000  C
  C68      1.0000 0.18620  0.08282  0.55575  Biso   1.000  C
  C69      1.0000 0.14226  0.20550  0.52556  Biso   1.000  C
  C70      1.0000 0.33862  0.40941  0.03440  Biso   1.000  C
  C71      1.0000 0.42668  0.38650  0.05810  Biso   1.000  C
  C72      1.0000 0.20770  0.16900  0.59474  Biso   1.000  C
  Ne1      1.0000 0.23267  0.23591  0.29005  Biso   1.000  Ne
  He1      1.0000 0.34737  0.10573  0.51099  Biso   1.000  He
  He2      1.0000 0.21263  0.35065  0.62508  Biso   1.000  He
  He3      1.0000 0.00000  0.00000  0.00000  Biso   1.000  He
  He4      1.0000 0.22200  0.19765  0.23837  Biso   1.000  He
  Ar1      1.0000 0.23202  0.21334  0.27060  Biso   1.000  Ar
  Ne2      1.0000 0.76733  0.76409  0.70995  Biso   1.000  Ne
  He5      1.0000 0.77795  0.80235  0.76155  Biso   1.000  He
  He6      1.0000 0.71437  0.57157  0.76318  Biso   1.000  He
  He7      1.0000 0.73958  0.86726  0.60478  Biso   1.000  He
  He8      1.0000 0.78702  0.64958  0.37604  Biso   1.000  He
  Ar2      1.0000 0.76793  0.78664  0.72930  Biso   1.000  Ar
