data_image0
_cell_length_a       12.946
_cell_length_b       17.34
_cell_length_c       27.763
_cell_angle_alpha    90
_cell_angle_beta     91.27
_cell_angle_gamma    90

_symmetry_space_group_name_H-M    "P 1"
_symmetry_int_tables_number       1

loop_
  _symmetry_equiv_pos_as_xyz
  'x, y, z'

loop_
  _atom_site_label
  _atom_site_occupancy
  _atom_site_fract_x
  _atom_site_fract_y
  _atom_site_fract_z
  _atom_site_thermal_displace_type
  _atom_site_B_iso_or_equiv
  _atom_site_type_symbol
  C1       1.0000 0.62140  0.56228  0.54701  Biso   1.000  C
  C2       1.0000 0.67016  0.49279  0.55242  Biso   1.000  C
  C3       1.0000 0.53049  0.57982  0.56668  Biso   1.000  C
  H1       1.0000 0.65522  0.59988  0.52741  Biso   1.000  H
  C4       1.0000 0.77361  0.47809  0.53012  Biso   1.000  C
  C5       1.0000 0.62049  0.43789  0.58001  Biso   1.000  C
  C6       1.0000 0.48379  0.52728  0.59511  Biso   1.000  C
  H2       1.0000 0.49871  0.62901  0.56110  Biso   1.000  H
  C7       1.0000 0.78772  0.39493  0.51491  Biso   1.000  C
  C8       1.0000 0.86099  0.51107  0.56132  Biso   1.000  C
  H3       1.0000 0.77269  0.50802  0.50101  Biso   1.000  H
  C9       1.0000 0.52470  0.45450  0.60260  Biso   1.000  C
  H4       1.0000 0.65178  0.38829  0.58499  Biso   1.000  H
  O1       1.0000 0.39237  0.55242  0.61529  Biso   1.000  O
  C10      1.0000 0.73894  0.37128  0.47171  Biso   1.000  C
  C11      1.0000 0.84860  0.34043  0.53948  Biso   1.000  C
  C12      1.0000 0.86651  0.50231  0.61071  Biso   1.000  C
  C13      1.0000 0.93661  0.55692  0.54010  Biso   1.000  C
  H5       1.0000 0.48827  0.41690  0.62101  Biso   1.000  H
  C14      1.0000 0.34451  0.52261  0.64530  Biso   1.000  C
  C15      1.0000 0.74783  0.29781  0.45410  Biso   1.000  C
  H6       1.0000 0.69833  0.40888  0.45431  Biso   1.000  H
  C16      1.0000 0.86040  0.26690  0.52122  Biso   1.000  C
  H7       1.0000 0.88337  0.35559  0.56888  Biso   1.000  H
  C17      1.0000 0.94540  0.53610  0.63881  Biso   1.000  C
  H8       1.0000 0.81417  0.47238  0.62599  Biso   1.000  H
  H9       1.0000 0.93320  0.56401  0.50580  Biso   1.000  H
  C18      1.0000 0.01398  0.59129  0.56719  Biso   1.000  C
  C19      1.0000 0.38848  0.51321  0.69430  Biso   1.000  C
  H10      1.0000 0.32908  0.47140  0.63420  Biso   1.000  H
  H11      1.0000 0.28012  0.54983  0.64750  Biso   1.000  H
  C20      1.0000 0.80911  0.24567  0.47899  Biso   1.000  C
  H12      1.0000 0.71192  0.28281  0.42491  Biso   1.000  H
  H13      1.0000 0.90328  0.22953  0.53761  Biso   1.000  H
  H14      1.0000 0.95004  0.52837  0.67311  Biso   1.000  H
  C21      1.0000 0.01793  0.58062  0.61612  Biso   1.000  C
  H15      1.0000 0.06493  0.62249  0.55181  Biso   1.000  H
  C22      1.0000 0.41872  0.50761  0.73421  Biso   1.000  C
  O2       1.0000 0.81413  0.17330  0.45781  Biso   1.000  O
  O3       1.0000 0.09778  0.61920  0.64011  Biso   1.000  O
  C23      1.0000 0.45397  0.50167  0.78192  Biso   1.000  C
  C24      1.0000 0.86237  0.11378  0.48461  Biso   1.000  C
  C25      1.0000 0.08438  0.63922  0.68968  Biso   1.000  C
  C26      1.0000 0.48108  0.49712  0.82248  Biso   1.000  C
  C27      1.0000 0.80432  0.09319  0.52781  Biso   1.000  C
  H16      1.0000 0.86782  0.06909  0.46451  Biso   1.000  H
  H17      1.0000 0.93079  0.12999  0.49409  Biso   1.000  H
  C28      1.0000 0.11307  0.57347  0.72279  Biso   1.000  C
  H18      1.0000 0.01378  0.65352  0.69451  Biso   1.000  H
  H19      1.0000 0.12746  0.68270  0.69739  Biso   1.000  H
  C29      1.0000 0.51067  0.48800  0.87299  Biso   1.000  C
  C30      1.0000 0.75399  0.07561  0.56099  Biso   1.000  C
  C31      1.0000 0.14416  0.52411  0.74809  Biso   1.000  C
  O4       1.0000 0.50317  0.40928  0.88910  Biso   1.000  O
  H20      1.0000 0.46631  0.51978  0.89191  Biso   1.000  H
  H21      1.0000 0.58050  0.50548  0.87789  Biso   1.000  H
  C32      1.0000 0.69294  0.05110  0.59929  Biso   1.000  C
  C33      1.0000 0.17962  0.46563  0.77748  Biso   1.000  C
  C34      1.0000 0.57934  0.36038  0.87451  Biso   1.000  C
  C35      1.0000 0.64143  0.02451  0.63049  Biso   1.000  C
  C36      1.0000 0.21507  0.41742  0.80339  Biso   1.000  C
  C37      1.0000 0.57431  0.28760  0.89540  Biso   1.000  C
  C38      1.0000 0.65854  0.37832  0.84410  Biso   1.000  C
  C39      1.0000 0.58026  0.99043  0.66810  Biso   1.000  C
  C40      1.0000 0.25950  0.35669  0.83452  Biso   1.000  C
  C41      1.0000 0.64920  0.23258  0.88488  Biso   1.000  C
  H22      1.0000 0.51931  0.27503  0.91659  Biso   1.000  H
  C42      1.0000 0.73267  0.32180  0.83401  Biso   1.000  C
  H23      1.0000 0.66142  0.42878  0.83001  Biso   1.000  H
  H24      1.0000 0.52922  0.02682  0.67808  Biso   1.000  H
  O5       1.0000 0.64362  0.96863  0.70910  Biso   1.000  O
  H25      1.0000 0.54530  0.94562  0.65571  Biso   1.000  H
  O6       1.0000 0.22382  0.28131  0.81830  Biso   1.000  O
  H26      1.0000 0.23701  0.36499  0.86680  Biso   1.000  H
  H27      1.0000 0.33357  0.35871  0.83441  Biso   1.000  H
  C43      1.0000 0.72978  0.24948  0.85440  Biso   1.000  C
  H28      1.0000 0.64630  0.18212  0.89879  Biso   1.000  H
  H29      1.0000 0.78686  0.33368  0.81211  Biso   1.000  H
  C44      1.0000 0.68430  0.02710  0.73782  Biso   1.000  C
  C45      1.0000 0.11954  0.26551  0.82479  Biso   1.000  C
  C46      1.0000 0.80838  0.18702  0.84388  Biso   1.000  C
  C47      1.0000 0.65086  0.10283  0.73630  Biso   1.000  C
  C48      1.0000 0.75974  0.00421  0.77122  Biso   1.000  C
  C49      1.0000 0.06409  0.29060  0.86251  Biso   1.000  C
  C50      1.0000 0.07342  0.21828  0.79071  Biso   1.000  C
  C51      1.0000 0.76579  0.13270  0.80440  Biso   1.000  C
  C52      1.0000 0.91737  0.21661  0.83408  Biso   1.000  C
  H30      1.0000 0.81392  0.15652  0.87271  Biso   1.000  H
  C53      1.0000 0.69411  0.15450  0.76869  Biso   1.000  C
  H31      1.0000 0.59962  0.11863  0.71281  Biso   1.000  H
  C54      1.0000 0.79898  0.05657  0.80371  Biso   1.000  C
  H32      1.0000 0.78320  0.95167  0.77089  Biso   1.000  H
  C55      1.0000 0.96298  0.26563  0.86741  Biso   1.000  C
  H33      1.0000 0.09602  0.32439  0.88589  Biso   1.000  H
  C56      1.0000 0.97306  0.19348  0.79510  Biso   1.000  C
  H34      1.0000 0.11299  0.20248  0.76351  Biso   1.000  H
  H35      1.0000 0.67389  0.20773  0.76729  Biso   1.000  H
  H36      1.0000 0.85159  0.04089  0.82670  Biso   1.000  H
  H37      1.0000 0.92371  0.28230  0.89440  Biso   1.000  H
  H38      1.0000 0.94081  0.16038  0.77150  Biso   1.000  H
  C57      1.0000 0.37863  0.43772  0.45302  Biso   1.000  C
  C58      1.0000 0.32979  0.50721  0.44761  Biso   1.000  C
  C59      1.0000 0.46954  0.42018  0.43331  Biso   1.000  C
  H39      1.0000 0.34480  0.40012  0.47262  Biso   1.000  H
  C60      1.0000 0.22641  0.52191  0.46991  Biso   1.000  C
  C61      1.0000 0.37953  0.56211  0.42001  Biso   1.000  C
  C62      1.0000 0.51623  0.47272  0.40488  Biso   1.000  C
  H40      1.0000 0.50132  0.37099  0.43889  Biso   1.000  H
  C63      1.0000 0.13904  0.48893  0.43871  Biso   1.000  C
  C64      1.0000 0.21231  0.60507  0.48512  Biso   1.000  C
  H41      1.0000 0.22733  0.49198  0.49899  Biso   1.000  H
  C65      1.0000 0.47532  0.54550  0.39739  Biso   1.000  C
  H42      1.0000 0.34817  0.61171  0.41501  Biso   1.000  H
  O7       1.0000 0.60758  0.44758  0.38471  Biso   1.000  O
  C66      1.0000 0.13352  0.49769  0.38928  Biso   1.000  C
  C67      1.0000 0.06342  0.44308  0.45990  Biso   1.000  C
  C68      1.0000 0.15143  0.65957  0.46051  Biso   1.000  C
  C69      1.0000 0.26109  0.62872  0.52831  Biso   1.000  C
  H43      1.0000 0.51168  0.58310  0.37901  Biso   1.000  H
  C70      1.0000 0.65551  0.47739  0.35470  Biso   1.000  C
  C71      1.0000 0.05463  0.46390  0.36122  Biso   1.000  C
  H44      1.0000 0.18578  0.52762  0.37401  Biso   1.000  H
  C72      1.0000 0.98597  0.40871  0.43280  Biso   1.000  C
  H45      1.0000 0.06682  0.43599  0.49420  Biso   1.000  H
  C73      1.0000 0.13963  0.73310  0.47881  Biso   1.000  C
  H46      1.0000 0.11658  0.64441  0.43111  Biso   1.000  H
  C74      1.0000 0.25219  0.70219  0.54590  Biso   1.000  C
  H47      1.0000 0.30170  0.59112  0.54572  Biso   1.000  H
  C75      1.0000 0.61147  0.48679  0.30570  Biso   1.000  C
  H48      1.0000 0.67087  0.52860  0.36579  Biso   1.000  H
  H49      1.0000 0.71991  0.45017  0.35250  Biso   1.000  H
  H50      1.0000 0.04999  0.47163  0.32688  Biso   1.000  H
  C76      1.0000 0.98210  0.41938  0.38391  Biso   1.000  C
  H51      1.0000 0.93510  0.37751  0.44819  Biso   1.000  H
  C77      1.0000 0.19092  0.75433  0.52100  Biso   1.000  C
  H52      1.0000 0.09667  0.77047  0.46238  Biso   1.000  H
  H53      1.0000 0.28811  0.71719  0.57512  Biso   1.000  H
  C78      1.0000 0.58130  0.49239  0.26581  Biso   1.000  C
  O8       1.0000 0.90217  0.38080  0.35988  Biso   1.000  O
  O9       1.0000 0.18590  0.82670  0.54219  Biso   1.000  O
  C79      1.0000 0.54598  0.49833  0.21811  Biso   1.000  C
  C80      1.0000 0.91557  0.36078  0.31031  Biso   1.000  C
  C81      1.0000 0.13758  0.88622  0.51542  Biso   1.000  C
  C82      1.0000 0.51887  0.50288  0.17751  Biso   1.000  C
  C83      1.0000 0.88688  0.42653  0.27720  Biso   1.000  C
  H54      1.0000 0.98617  0.34648  0.30552  Biso   1.000  H
  H55      1.0000 0.87249  0.31730  0.30260  Biso   1.000  H
  C84      1.0000 0.19570  0.90681  0.47218  Biso   1.000  C
  H56      1.0000 0.13220  0.93091  0.53548  Biso   1.000  H
  H57      1.0000 0.06923  0.87001  0.50591  Biso   1.000  H
  C85      1.0000 0.48927  0.51200  0.12700  Biso   1.000  C
  C86      1.0000 0.85579  0.47589  0.25191  Biso   1.000  C
  C87      1.0000 0.24603  0.92439  0.43900  Biso   1.000  C
  O10      1.0000 0.49677  0.59072  0.11089  Biso   1.000  O
  H58      1.0000 0.53372  0.48022  0.10808  Biso   1.000  H
  H59      1.0000 0.41952  0.49452  0.12210  Biso   1.000  H
  C88      1.0000 0.82040  0.53437  0.22251  Biso   1.000  C
  C89      1.0000 0.30709  0.94890  0.40070  Biso   1.000  C
  C90      1.0000 0.42069  0.63962  0.12549  Biso   1.000  C
  C91      1.0000 0.78487  0.58258  0.19660  Biso   1.000  C
  C92      1.0000 0.35859  0.97549  0.36950  Biso   1.000  C
  C93      1.0000 0.42572  0.71240  0.10459  Biso   1.000  C
  C94      1.0000 0.34149  0.62168  0.15589  Biso   1.000  C
  C95      1.0000 0.74053  0.64331  0.16551  Biso   1.000  C
  C96      1.0000 0.41968  0.00957  0.33189  Biso   1.000  C
  C97      1.0000 0.35083  0.76742  0.11511  Biso   1.000  C
  H60      1.0000 0.48071  0.72503  0.08340  Biso   1.000  H
  C98      1.0000 0.26728  0.67820  0.16602  Biso   1.000  C
  H61      1.0000 0.33861  0.57122  0.17002  Biso   1.000  H
  O11      1.0000 0.77621  0.71869  0.18169  Biso   1.000  O
  H62      1.0000 0.76301  0.63501  0.13320  Biso   1.000  H
  H63      1.0000 0.66637  0.64129  0.16558  Biso   1.000  H
  H64      1.0000 0.47081  0.97318  0.32191  Biso   1.000  H
  O12      1.0000 0.35640  0.03137  0.29089  Biso   1.000  O
  H65      1.0000 0.45472  0.05438  0.34428  Biso   1.000  H
  C99      1.0000 0.27017  0.75052  0.14559  Biso   1.000  C
  H66      1.0000 0.35372  0.81788  0.10120  Biso   1.000  H
  H67      1.0000 0.21309  0.66632  0.18789  Biso   1.000  H
  C100     1.0000 0.88049  0.73449  0.17520  Biso   1.000  C
  C101     1.0000 0.31572  0.97290  0.26221  Biso   1.000  C
  C102     1.0000 0.19157  0.81298  0.15611  Biso   1.000  C
  C103     1.0000 0.93593  0.70940  0.13748  Biso   1.000  C
  C104     1.0000 0.92660  0.78172  0.20929  Biso   1.000  C
  C105     1.0000 0.34909  0.89717  0.26369  Biso   1.000  C
  C106     1.0000 0.24029  0.99579  0.22881  Biso   1.000  C
  C107     1.0000 0.08258  0.78339  0.16591  Biso   1.000  C
  C108     1.0000 0.23423  0.86730  0.19560  Biso   1.000  C
  H68      1.0000 0.18611  0.84348  0.12729  Biso   1.000  H
  C109     1.0000 0.03697  0.73437  0.13258  Biso   1.000  C
  H69      1.0000 0.90400  0.67561  0.11410  Biso   1.000  H
  C110     1.0000 0.02689  0.80652  0.20489  Biso   1.000  C
  H70      1.0000 0.88703  0.79752  0.23649  Biso   1.000  H
  C111     1.0000 0.30591  0.84550  0.23130  Biso   1.000  C
  H71      1.0000 0.40041  0.88137  0.28722  Biso   1.000  H
  C112     1.0000 0.20097  0.94343  0.19632  Biso   1.000  C
  H72      1.0000 0.21682  0.04833  0.22910  Biso   1.000  H
  H73      1.0000 0.07632  0.71770  0.10560  Biso   1.000  H
  H74      1.0000 0.05922  0.83962  0.22849  Biso   1.000  H
  H75      1.0000 0.32614  0.79227  0.23270  Biso   1.000  H
  H76      1.0000 0.14843  0.95911  0.17329  Biso   1.000  H
  C113     1.0000 0.53702  0.76563  0.63262  Biso   1.000  C
  C114     1.0000 0.58263  0.71661  0.66591  Biso   1.000  C
  C115     1.0000 0.43591  0.79060  0.63752  Biso   1.000  C
  H77      1.0000 0.57629  0.78230  0.60559  Biso   1.000  H
  C116     1.0000 0.69162  0.68702  0.65611  Biso   1.000  C
  C117     1.0000 0.52686  0.69348  0.70489  Biso   1.000  C
  C118     1.0000 0.38046  0.76551  0.67520  Biso   1.000  C
  H78      1.0000 0.40398  0.82439  0.61410  Biso   1.000  H
  C119     1.0000 0.77022  0.74948  0.64559  Biso   1.000  C
  C120     1.0000 0.73421  0.63270  0.69559  Biso   1.000  C
  H79      1.0000 0.68608  0.65652  0.62728  Biso   1.000  H
  C121     1.0000 0.42658  0.71828  0.70928  Biso   1.000  C
  H80      1.0000 0.55919  0.66038  0.72849  Biso   1.000  H
  O13      1.0000 0.27618  0.78131  0.68169  Biso   1.000  O
  C122     1.0000 0.85080  0.73258  0.61511  Biso   1.000  C
  C123     1.0000 0.76733  0.82180  0.66601  Biso   1.000  C
  C124     1.0000 0.80589  0.65450  0.73130  Biso   1.000  C
  C125     1.0000 0.70102  0.55657  0.69631  Biso   1.000  C
  H81      1.0000 0.38701  0.70248  0.73648  Biso   1.000  H
  C126     1.0000 0.24050  0.85669  0.66551  Biso   1.000  C
  C127     1.0000 0.92569  0.78760  0.60459  Biso   1.000  C
  H82      1.0000 0.85370  0.68212  0.60120  Biso   1.000  H
  C128     1.0000 0.84146  0.87832  0.65589  Biso   1.000  C
  H83      1.0000 0.71314  0.83368  0.68788  Biso   1.000  H
  C129     1.0000 0.84914  0.60283  0.76369  Biso   1.000  C
  H84      1.0000 0.82611  0.70773  0.73270  Biso   1.000  H
  C130     1.0000 0.74026  0.50421  0.72881  Biso   1.000  C
  H85      1.0000 0.64841  0.54089  0.67329  Biso   1.000  H
  C131     1.0000 0.28493  0.91742  0.69660  Biso   1.000  C
  H86      1.0000 0.26299  0.86499  0.63319  Biso   1.000  H
  H87      1.0000 0.16643  0.85871  0.66562  Biso   1.000  H
  C132     1.0000 0.92066  0.86038  0.62548  Biso   1.000  C
  H88      1.0000 0.98069  0.77503  0.58340  Biso   1.000  H
  H89      1.0000 0.83858  0.92878  0.67001  Biso   1.000  H
  C133     1.0000 0.81570  0.52710  0.76221  Biso   1.000  C
  H90      1.0000 0.90039  0.61863  0.78721  Biso   1.000  H
  H91      1.0000 0.71680  0.45167  0.72910  Biso   1.000  H
  C134     1.0000 0.32038  0.96563  0.72251  Biso   1.000  C
  O14      1.0000 0.99683  0.90928  0.61089  Biso   1.000  O
  O15      1.0000 0.85638  0.46863  0.79089  Biso   1.000  O
  C135     1.0000 0.35584  0.02411  0.75190  Biso   1.000  C
  C136     1.0000 0.98933  0.98800  0.62700  Biso   1.000  C
  C137     1.0000 0.91974  0.49043  0.83189  Biso   1.000  C
  C138     1.0000 0.38693  0.07347  0.77720  Biso   1.000  C
  H92      1.0000 0.91950  0.00548  0.62210  Biso   1.000  H
  C139     1.0000 0.01892  0.99712  0.67751  Biso   1.000  C
  H93      1.0000 0.03369  0.01978  0.60812  Biso   1.000  H
  C140     1.0000 0.85857  0.52451  0.86950  Biso   1.000  C
  H94      1.0000 0.97078  0.52682  0.82191  Biso   1.000  H
  H95      1.0000 0.95470  0.44562  0.84432  Biso   1.000  H
  C141     1.0000 0.41562  0.13922  0.81031  Biso   1.000  C
  C142     1.0000 0.04603  0.00167  0.71811  Biso   1.000  C
  C143     1.0000 0.80706  0.55110  0.90070  Biso   1.000  C
  O16      1.0000 0.40222  0.11920  0.85992  Biso   1.000  O
  H96      1.0000 0.48622  0.15352  0.80551  Biso   1.000  H
  H97      1.0000 0.37254  0.18270  0.80260  Biso   1.000  H
  C144     1.0000 0.08128  0.00761  0.76581  Biso   1.000  C
  C145     1.0000 0.74601  0.57561  0.93900  Biso   1.000  C
  C146     1.0000 0.48207  0.08062  0.88391  Biso   1.000  C
  C147     1.0000 0.11152  0.01321  0.80569  Biso   1.000  C
  C148     1.0000 0.69568  0.59319  0.97222  Biso   1.000  C
  C149     1.0000 0.55461  0.03610  0.86121  Biso   1.000  C
  C150     1.0000 0.48602  0.09129  0.93280  Biso   1.000  C
  C151     1.0000 0.15549  0.02261  0.85469  Biso   1.000  C
  C152     1.0000 0.63763  0.61378  0.01541  Biso   1.000  C
  C153     1.0000 0.63350  0.00231  0.88932  Biso   1.000  C
  H98      1.0000 0.54996  0.02837  0.82691  Biso   1.000  H
  C154     1.0000 0.56339  0.05692  0.95989  Biso   1.000  C
  H99      1.0000 0.43507  0.12249  0.94819  Biso   1.000  H
  H100     1.0000 0.17092  0.97140  0.86579  Biso   1.000  H
  O17      1.0000 0.10763  0.05242  0.88470  Biso   1.000  O
  H101     1.0000 0.21988  0.04983  0.85249  Biso   1.000  H
  O18      1.0000 0.68587  0.67330  0.04218  Biso   1.000  O
  H102     1.0000 0.63218  0.56909  0.03552  Biso   1.000  H
  H103     1.0000 0.56921  0.62999  0.00590  Biso   1.000  H
  H104     1.0000 0.68583  0.97238  0.87400  Biso   1.000  H
  C155     1.0000 0.63901  0.01107  0.93871  Biso   1.000  C
  H105     1.0000 0.56680  0.06401  0.99419  Biso   1.000  H
  C156     1.0000 0.01621  0.02728  0.90492  Biso   1.000  C
  C157     1.0000 0.69089  0.74567  0.02100  Biso   1.000  C
  C158     1.0000 0.72639  0.97809  0.96991  Biso   1.000  C
  C159     1.0000 0.97530  0.95450  0.89739  Biso   1.000  C
  C160     1.0000 0.96951  0.07982  0.93331  Biso   1.000  C
  C161     1.0000 0.63960  0.76690  0.97881  Biso   1.000  C
  C162     1.0000 0.75217  0.79781  0.04589  Biso   1.000  C
  C163     1.0000 0.82976  0.99279  0.94761  Biso   1.000  C
  C164     1.0000 0.71228  0.89493  0.98511  Biso   1.000  C
  H106     1.0000 0.72731  0.00802  0.99898  Biso   1.000  H
  C165     1.0000 0.87951  0.93789  0.92001  Biso   1.000  C
  H107     1.0000 0.01173  0.91690  0.87901  Biso   1.000  H
  C166     1.0000 0.87861  0.06228  0.95301  Biso   1.000  C
  H108     1.0000 0.00129  0.12901  0.93889  Biso   1.000  H
  C167     1.0000 0.65140  0.84043  0.96051  Biso   1.000  C
  H109     1.0000 0.59673  0.72953  0.96242  Biso   1.000  H
  C168     1.0000 0.76107  0.87128  0.02831  Biso   1.000  C
  H110     1.0000 0.78809  0.78281  0.07511  Biso   1.000  H
  H111     1.0000 0.84822  0.88829  0.91500  Biso   1.000  H
  H112     1.0000 0.84478  0.09988  0.97261  Biso   1.000  H
  H113     1.0000 0.61663  0.85559  0.93111  Biso   1.000  H
  H114     1.0000 0.80167  0.90888  0.04571  Biso   1.000  H
  C169     1.0000 0.46301  0.23437  0.36741  Biso   1.000  C
  C170     1.0000 0.41739  0.28339  0.33409  Biso   1.000  C
  C171     1.0000 0.56412  0.20940  0.36251  Biso   1.000  C
  H115     1.0000 0.42374  0.21770  0.39440  Biso   1.000  H
  C172     1.0000 0.30840  0.31298  0.34389  Biso   1.000  C
  C173     1.0000 0.47309  0.30652  0.29511  Biso   1.000  C
  C174     1.0000 0.61949  0.23449  0.32479  Biso   1.000  C
  H116     1.0000 0.59597  0.17561  0.38590  Biso   1.000  H
  C175     1.0000 0.26582  0.36730  0.30440  Biso   1.000  C
  C176     1.0000 0.22981  0.25052  0.35441  Biso   1.000  C
  H117     1.0000 0.31387  0.34348  0.37271  Biso   1.000  H
  C177     1.0000 0.57337  0.28172  0.29071  Biso   1.000  C
  H118     1.0000 0.44084  0.33962  0.27151  Biso   1.000  H
  O19      1.0000 0.72377  0.21869  0.31831  Biso   1.000  O
  C178     1.0000 0.19406  0.34550  0.26870  Biso   1.000  C
  C179     1.0000 0.29900  0.44343  0.30372  Biso   1.000  C
  C180     1.0000 0.14922  0.26742  0.38489  Biso   1.000  C
  C181     1.0000 0.23270  0.17820  0.33402  Biso   1.000  C
  H119     1.0000 0.61302  0.29752  0.26351  Biso   1.000  H
  C182     1.0000 0.75953  0.14331  0.33448  Biso   1.000  C
  C183     1.0000 0.15089  0.39717  0.23631  Biso   1.000  C
  H120     1.0000 0.17391  0.29227  0.26729  Biso   1.000  H
  C184     1.0000 0.25968  0.49579  0.27118  Biso   1.000  C
  H121     1.0000 0.35162  0.45911  0.32670  Biso   1.000  H
  C185     1.0000 0.07433  0.21240  0.39541  Biso   1.000  C
  H122     1.0000 0.14633  0.31788  0.39879  Biso   1.000  H
  C186     1.0000 0.15848  0.12168  0.34410  Biso   1.000  C
  H123     1.0000 0.28689  0.16632  0.31211  Biso   1.000  H
  C187     1.0000 0.71510  0.08258  0.30339  Biso   1.000  C
  H124     1.0000 0.73696  0.13501  0.36680  Biso   1.000  H
  H125     1.0000 0.83360  0.14129  0.33441  Biso   1.000  H
  C188     1.0000 0.18433  0.47290  0.23778  Biso   1.000  C
  H126     1.0000 0.09956  0.38137  0.21282  Biso   1.000  H
  H127     1.0000 0.28323  0.54833  0.27089  Biso   1.000  H
  C189     1.0000 0.07929  0.13962  0.37451  Biso   1.000  C
  H128     1.0000 0.01934  0.22503  0.41659  Biso   1.000  H
  H129     1.0000 0.16137  0.07122  0.33002  Biso   1.000  H
  C190     1.0000 0.67957  0.03437  0.27749  Biso   1.000  C
  O20      1.0000 0.14357  0.53137  0.20911  Biso   1.000  O
  O21      1.0000 0.00320  0.09072  0.38910  Biso   1.000  O
  C191     1.0000 0.64419  0.97589  0.24809  Biso   1.000  C
  C192     1.0000 0.08029  0.50957  0.16811  Biso   1.000  C
  C193     1.0000 0.01070  0.01200  0.37300  Biso   1.000  C
  C194     1.0000 0.61309  0.92653  0.22280  Biso   1.000  C
  C195     1.0000 0.14138  0.47549  0.13049  Biso   1.000  C
  H130     1.0000 0.02917  0.47318  0.17809  Biso   1.000  H
  H131     1.0000 0.04533  0.55438  0.15571  Biso   1.000  H
  H132     1.0000 0.96633  0.98022  0.39191  Biso   1.000  H
  C196     1.0000 0.98111  0.00288  0.32249  Biso   1.000  C
  H133     1.0000 0.08053  0.99452  0.37790  Biso   1.000  H
  C197     1.0000 0.58441  0.86078  0.18969  Biso   1.000  C
  C198     1.0000 0.19289  0.44890  0.09929  Biso   1.000  C
  C199     1.0000 0.95400  0.99833  0.28188  Biso   1.000  C
  O22      1.0000 0.59781  0.88080  0.14011  Biso   1.000  O
  H134     1.0000 0.51380  0.84648  0.19452  Biso   1.000  H
  H135     1.0000 0.62749  0.81730  0.19740  Biso   1.000  H
  C200     1.0000 0.25402  0.42439  0.06100  Biso   1.000  C
  C201     1.0000 0.91867  0.99239  0.23418  Biso   1.000  C
  C202     1.0000 0.51788  0.91938  0.11608  Biso   1.000  C
  C203     1.0000 0.30427  0.40681  0.02781  Biso   1.000  C
  C204     1.0000 0.88850  0.98679  0.19430  Biso   1.000  C
  C205     1.0000 0.44542  0.96390  0.13882  Biso   1.000  C
  C206     1.0000 0.51401  0.90871  0.06719  Biso   1.000  C
  C207     1.0000 0.36239  0.38622  0.98462  Biso   1.000  C
  C208     1.0000 0.84446  0.97739  0.14530  Biso   1.000  C
  C209     1.0000 0.36653  0.99769  0.11071  Biso   1.000  C
  H136     1.0000 0.44999  0.97163  0.17311  Biso   1.000  H
  C210     1.0000 0.43663  0.94308  0.04010  Biso   1.000  C
  H137     1.0000 0.56488  0.87751  0.05181  Biso   1.000  H
  O23      1.0000 0.31408  0.32670  0.95781  Biso   1.000  O
  H138     1.0000 0.36777  0.43091  0.96451  Biso   1.000  H
  H139     1.0000 0.43082  0.37001  0.99409  Biso   1.000  H
  O24      1.0000 0.89239  0.94758  0.11529  Biso   1.000  O
  H140     1.0000 0.78007  0.95017  0.14750  Biso   1.000  H
  H141     1.0000 0.82910  0.02860  0.13420  Biso   1.000  H
  C211     1.0000 0.36102  0.98893  0.06128  Biso   1.000  C
  H142     1.0000 0.31419  0.02762  0.12599  Biso   1.000  H
  H143     1.0000 0.43323  0.93599  0.00580  Biso   1.000  H
  C212     1.0000 0.30914  0.25433  0.97900  Biso   1.000  C
  C213     1.0000 0.98382  0.97272  0.09511  Biso   1.000  C
  C214     1.0000 0.27364  0.02191  0.03008  Biso   1.000  C
  C215     1.0000 0.36042  0.23310  0.02118  Biso   1.000  C
  C216     1.0000 0.24778  0.20219  0.95410  Biso   1.000  C
  C217     1.0000 0.02473  0.04550  0.10261  Biso   1.000  C
  C218     1.0000 0.03051  0.92018  0.06669  Biso   1.000  C
  C219     1.0000 0.28767  0.10507  0.01492  Biso   1.000  C
  C220     1.0000 0.17019  0.00721  0.05238  Biso   1.000  C
  H144     1.0000 0.27272  0.99198  0.00101  Biso   1.000  H
  C221     1.0000 0.34862  0.15957  0.03949  Biso   1.000  C
  H145     1.0000 0.40330  0.27047  0.03761  Biso   1.000  H
  C222     1.0000 0.23888  0.12872  0.97172  Biso   1.000  C
  H146     1.0000 0.21186  0.21719  0.92492  Biso   1.000  H
  C223     1.0000 0.12052  0.06211  0.07998  Biso   1.000  C
  H147     1.0000 0.98829  0.08310  0.12098  Biso   1.000  H
  C224     1.0000 0.12142  0.93772  0.04702  Biso   1.000  C
  H148     1.0000 0.99873  0.87099  0.06110  Biso   1.000  H
  H149     1.0000 0.38339  0.14441  0.06889  Biso   1.000  H
  H150     1.0000 0.19828  0.09112  0.95432  Biso   1.000  H
  H151     1.0000 0.15181  0.11171  0.08499  Biso   1.000  H
  H152     1.0000 0.15517  0.90012  0.02742  Biso   1.000  H
