data_image0
_cell_length_a       13.351
_cell_length_b       13.351
_cell_length_c       34.765
_cell_angle_alpha    90
_cell_angle_beta     90
_cell_angle_gamma    120

_symmetry_space_group_name_H-M    "P 1"
_symmetry_int_tables_number       1

loop_
  _symmetry_equiv_pos_as_xyz
  'x, y, z'

loop_
  _atom_site_label
  _atom_site_occupancy
  _atom_site_fract_x
  _atom_site_fract_y
  _atom_site_fract_z
  _atom_site_thermal_displace_type
  _atom_site_B_iso_or_equiv
  _atom_site_type_symbol
  C1       1.0000 0.20217  0.07628  0.80291  Biso   1.000  C
  C2       1.0000 0.20222  0.07637  0.80291  Biso   1.000  C
  C3       1.0000 0.20117  0.07308  0.73209  Biso   1.000  C
  H1       1.0000 0.26999  0.21596  0.77000  Biso   1.000  H
  C4       1.0000 0.20122  0.07317  0.73209  Biso   1.000  C
  H2       1.0000 0.26996  0.21605  0.77000  Biso   1.000  H
  C5       1.0000 0.22459  0.12861  0.84079  Biso   1.000  C
  H3       1.0000 0.16209  0.98997  0.80201  Biso   1.000  H
  H4       1.0000 0.16198  0.99005  0.80201  Biso   1.000  H
  C6       1.0000 0.22852  0.12913  0.76951  Biso   1.000  C
  H5       1.0000 0.15702  0.98703  0.73200  Biso   1.000  H
  C7       1.0000 0.23069  0.12688  0.69771  Biso   1.000  C
  C8       1.0000 0.23066  0.12696  0.69771  Biso   1.000  C
  C9       1.0000 0.27900  0.25704  0.84231  Biso   1.000  C
  C10      1.0000 0.19534  0.06201  0.87329  Biso   1.000  C
  C11      1.0000 0.29787  0.25583  0.69231  Biso   1.000  C
  C12      1.0000 0.19814  0.05578  0.66291  Biso   1.000  C
  H6       1.0000 0.35397  0.28999  0.85600  Biso   1.000  H
  H7       1.0000 0.29305  0.28904  0.81599  Biso   1.000  H
  H8       1.0000 0.22602  0.27797  0.85600  Biso   1.000  H
  H9       1.0000 0.29297  0.28904  0.81599  Biso   1.000  H
  H10      1.0000 0.22599  0.27806  0.85600  Biso   1.000  H
  H11      1.0000 0.16608  0.97803  0.86901  Biso   1.000  H
  C13      1.0000 0.20323  0.09981  0.91189  Biso   1.000  C
  C14      1.0000 0.20315  0.09981  0.91189  Biso   1.000  C
  H12      1.0000 0.37200  0.27797  0.67899  Biso   1.000  H
  H13      1.0000 0.37197  0.27806  0.67899  Biso   1.000  H
  H14      1.0000 0.31506  0.29501  0.71799  Biso   1.000  H
  H15      1.0000 0.25103  0.28005  0.67700  Biso   1.000  H
  H16      1.0000 0.15097  0.96999  0.66501  Biso   1.000  H
  N1       1.0000 0.22795  0.10041  0.63000  Biso   1.000  N
  C15      1.0000 0.18966  0.03209  0.94299  Biso   1.000  C
  H17      1.0000 0.21901  0.18007  0.91701  Biso   1.000  H
  C16      1.0000 0.19256  0.02396  0.59709  Biso   1.000  C
  C17      1.0000 0.19261  0.02404  0.59709  Biso   1.000  C
  H18      1.0000 0.17905  0.95304  0.93801  Biso   1.000  H
  C18      1.0000 0.19072  0.06582  0.98191  Biso   1.000  C
  C19      1.0000 0.19065  0.06582  0.98191  Biso   1.000  C
  H19      1.0000 0.26297  0.03399  0.58300  Biso   1.000  H
  H20      1.0000 0.14505  0.94197  0.60601  Biso   1.000  H
  H21      1.0000 0.14510  0.94205  0.60601  Biso   1.000  H
  H22      1.0000 0.14490  0.94197  0.60601  Biso   1.000  H
  C20      1.0000 0.12059  0.05137  0.56939  Biso   1.000  C
  C21      1.0000 0.12063  0.05146  0.56939  Biso   1.000  C
  H23      1.0000 0.18400  0.13596  0.98599  Biso   1.000  H
  H24      1.0000 0.18397  0.13605  0.98599  Biso   1.000  H
  C22      1.0000 0.19959  0.01479  0.01361  Biso   1.000  C
  N2       1.0000 0.00007  0.00000  0.58199  Biso   1.000  N
  N3       1.0000 0.00000  0.00000  0.58199  Biso   1.000  N
  H25      1.0000 0.12204  0.02102  0.54299  Biso   1.000  H
  H26      1.0000 0.15501  0.13700  0.56801  Biso   1.000  H
  H27      1.0000 0.12196  0.02102  0.54299  Biso   1.000  H
  H28      1.0000 0.15493  0.13700  0.56801  Biso   1.000  H
  C23      1.0000 0.21859  0.91317  0.01199  Biso   1.000  C
  C24      1.0000 0.21863  0.91325  0.01199  Biso   1.000  C
  C25      1.0000 0.18890  0.05483  0.05140  Biso   1.000  C
  C26      1.0000 0.93088  0.87944  0.56939  Biso   1.000  C
  C27      1.0000 0.94861  0.06919  0.56939  Biso   1.000  C
  C28      1.0000 0.94853  0.06919  0.56939  Biso   1.000  C
  H29      1.0000 0.29195  0.93496  0.99799  Biso   1.000  H
  H30      1.0000 0.15307  0.84804  0.99799  Biso   1.000  H
  H31      1.0000 0.29199  0.93505  0.99799  Biso   1.000  H
  H32      1.0000 0.22293  0.88800  0.03900  Biso   1.000  H
  C29      1.0000 0.20082  0.01470  0.08609  Biso   1.000  C
  H33      1.0000 0.17103  0.11901  0.05201  Biso   1.000  H
  C30      1.0000 0.20075  0.01470  0.08609  Biso   1.000  C
  H34      1.0000 0.17096  0.11901  0.05201  Biso   1.000  H
  C31      1.0000 0.83142  0.80739  0.59709  Biso   1.000  C
  H35      1.0000 0.89906  0.87797  0.54299  Biso   1.000  H
  H36      1.0000 0.98198  0.84501  0.56801  Biso   1.000  H
  C32      1.0000 0.83134  0.80739  0.59709  Biso   1.000  C
  H37      1.0000 0.89903  0.87805  0.54299  Biso   1.000  H
  H38      1.0000 0.97898  0.10102  0.54299  Biso   1.000  H
  C33      1.0000 0.97602  0.16865  0.59709  Biso   1.000  C
  H39      1.0000 0.86294  0.01799  0.56801  Biso   1.000  H
  H40      1.0000 0.21911  0.95001  0.08701  Biso   1.000  H
  H41      1.0000 0.21896  0.95001  0.08701  Biso   1.000  H
  C34      1.0000 0.18875  0.05933  0.12190  Biso   1.000  C
  N4       1.0000 0.87245  0.77202  0.63000  Biso   1.000  N
  H42      1.0000 0.77097  0.73699  0.58300  Biso   1.000  H
  H43      1.0000 0.79700  0.85496  0.60601  Biso   1.000  H
  H44      1.0000 0.79705  0.85505  0.60601  Biso   1.000  H
  H45      1.0000 0.05798  0.20299  0.60601  Biso   1.000  H
  H46      1.0000 0.96598  0.22902  0.58300  Biso   1.000  H
  N5       1.0000 0.89957  0.12766  0.63000  Biso   1.000  N
  C35      1.0000 0.20328  0.02621  0.15720  Biso   1.000  C
  H47      1.0000 0.16805  0.12203  0.12101  Biso   1.000  H
  H48      1.0000 0.16798  0.12203  0.12101  Biso   1.000  H
  C36      1.0000 0.85759  0.80177  0.66291  Biso   1.000  C
  C37      1.0000 0.85756  0.80186  0.66291  Biso   1.000  C
  C38      1.0000 0.94415  0.14236  0.66291  Biso   1.000  C
  C39      1.0000 0.94419  0.14245  0.66291  Biso   1.000  C
  C40      1.0000 0.23418  0.93358  0.16381  Biso   1.000  C
  C41      1.0000 0.23408  0.93366  0.16381  Biso   1.000  C
  C42      1.0000 0.18869  0.08407  0.19059  Biso   1.000  C
  C43      1.0000 0.18866  0.08415  0.19059  Biso   1.000  C
  C44      1.0000 0.89620  0.76934  0.69771  Biso   1.000  C
  H49      1.0000 0.81896  0.84899  0.66501  Biso   1.000  H
  H50      1.0000 0.02999  0.18102  0.66501  Biso   1.000  H
  C45      1.0000 0.87303  0.10379  0.69771  Biso   1.000  C
  H51      1.0000 0.31002  0.95702  0.15101  Biso   1.000  H
  H52      1.0000 0.24007  0.92303  0.19200  Biso   1.000  H
  H53      1.0000 0.17301  0.85902  0.15199  Biso   1.000  H
  N6       1.0000 0.21740  0.07213  0.22419  Biso   1.000  N
  H54      1.0000 0.15501  0.13596  0.18700  Biso   1.000  H
  H55      1.0000 0.15498  0.13605  0.18700  Biso   1.000  H
  C46      1.0000 0.95795  0.70214  0.69231  Biso   1.000  C
  C47      1.0000 0.87200  0.79883  0.73209  Biso   1.000  C
  C48      1.0000 0.87193  0.79883  0.73209  Biso   1.000  C
  C49      1.0000 0.92690  0.12809  0.73209  Biso   1.000  C
  C50      1.0000 0.92683  0.12809  0.73209  Biso   1.000  C
  C51      1.0000 0.74415  0.04212  0.69231  Biso   1.000  C
  C52      1.0000 0.20125  0.13734  0.25520  Biso   1.000  C
  C53      1.0000 0.20117  0.13734  0.25520  Biso   1.000  C
  H56      1.0000 0.98010  0.68501  0.71799  Biso   1.000  H
  H57      1.0000 0.90599  0.62802  0.67899  Biso   1.000  H
  H58      1.0000 0.97995  0.68501  0.71799  Biso   1.000  H
  H59      1.0000 0.02903  0.74901  0.67700  Biso   1.000  H
  H60      1.0000 0.02895  0.74901  0.67700  Biso   1.000  H
  C54      1.0000 0.90065  0.77150  0.76951  Biso   1.000  C
  H61      1.0000 0.82998  0.84302  0.73200  Biso   1.000  H
  C55      1.0000 0.87090  0.09937  0.76951  Biso   1.000  C
  C56      1.0000 0.87087  0.09946  0.76951  Biso   1.000  C
  H62      1.0000 0.01304  0.17004  0.73200  Biso   1.000  H
  H63      1.0000 0.01296  0.17004  0.73200  Biso   1.000  H
  H64      1.0000 0.71999  0.97103  0.67700  Biso   1.000  H
  H65      1.0000 0.70499  0.01998  0.71799  Biso   1.000  H
  H66      1.0000 0.70496  0.02007  0.71799  Biso   1.000  H
  H67      1.0000 0.72194  0.09401  0.67899  Biso   1.000  H
  C57      1.0000 0.11951  0.05146  0.28520  Biso   1.000  C
  H68      1.0000 0.16603  0.18301  0.24401  Biso   1.000  H
  C58      1.0000 0.11947  0.05155  0.28520  Biso   1.000  C
  H69      1.0000 0.27701  0.19105  0.26699  Biso   1.000  H
  H70      1.0000 0.16596  0.18301  0.24401  Biso   1.000  H
  C59      1.0000 0.87410  0.79779  0.80291  Biso   1.000  C
  H71      1.0000 0.94596  0.72998  0.77000  Biso   1.000  H
  C60      1.0000 0.87403  0.79779  0.80291  Biso   1.000  C
  C61      1.0000 0.92372  0.12593  0.80291  Biso   1.000  C
  H72      1.0000 0.78401  0.05397  0.77000  Biso   1.000  H
  C62      1.0000 0.92365  0.12593  0.80291  Biso   1.000  C
  H73      1.0000 0.78397  0.05405  0.77000  Biso   1.000  H
  H74      1.0000 0.13899  0.98902  0.28900  Biso   1.000  H
  N7       1.0000 0.00007  0.00000  0.27349  Biso   1.000  N
  N8       1.0000 0.00000  0.00000  0.27349  Biso   1.000  N
  H75      1.0000 0.13000  0.09297  0.31000  Biso   1.000  H
  H76      1.0000 0.12997  0.09306  0.31000  Biso   1.000  H
  C63      1.0000 0.90402  0.77539  0.84079  Biso   1.000  C
  H77      1.0000 0.82807  0.83801  0.80201  Biso   1.000  H
  C64      1.0000 0.90395  0.77539  0.84079  Biso   1.000  C
  H78      1.0000 0.00999  0.17202  0.80201  Biso   1.000  H
  C65      1.0000 0.87138  0.09600  0.84079  Biso   1.000  C
  C66      1.0000 0.93200  0.88047  0.28520  Biso   1.000  C
  C67      1.0000 0.93197  0.88056  0.28520  Biso   1.000  C
  C68      1.0000 0.94845  0.06798  0.28520  Biso   1.000  C
  C69      1.0000 0.94850  0.06807  0.28520  Biso   1.000  C
  C70      1.0000 0.97801  0.72099  0.84231  Biso   1.000  C
  C71      1.0000 0.86666  0.80462  0.87329  Biso   1.000  C
  C72      1.0000 0.93800  0.13336  0.87329  Biso   1.000  C
  C73      1.0000 0.74299  0.02197  0.84231  Biso   1.000  C
  C74      1.0000 0.93797  0.13345  0.87329  Biso   1.000  C
  C75      1.0000 0.74296  0.02205  0.84231  Biso   1.000  C
  C76      1.0000 0.93612  0.79883  0.25520  Biso   1.000  C
  H79      1.0000 0.96302  0.87001  0.31000  Biso   1.000  H
  H80      1.0000 0.84999  0.86101  0.28900  Biso   1.000  H
  C77      1.0000 0.93604  0.79883  0.25520  Biso   1.000  C
  H81      1.0000 0.96294  0.87001  0.31000  Biso   1.000  H
  C78      1.0000 0.86268  0.06391  0.25520  Biso   1.000  C
  H82      1.0000 0.90698  0.03702  0.31000  Biso   1.000  H
  H83      1.0000 0.01102  0.14997  0.28900  Biso   1.000  H
  H84      1.0000 0.01099  0.15006  0.28900  Biso   1.000  H
  H85      1.0000 0.93610  0.64600  0.85600  Biso   1.000  H
  H86      1.0000 0.99607  0.70707  0.81599  Biso   1.000  H
  H87      1.0000 0.93595  0.64600  0.85600  Biso   1.000  H
  H88      1.0000 0.05208  0.77401  0.85600  Biso   1.000  H
  H89      1.0000 0.05201  0.77401  0.85600  Biso   1.000  H
  C79      1.0000 0.89662  0.79684  0.91189  Biso   1.000  C
  H90      1.0000 0.81208  0.83403  0.86901  Biso   1.000  H
  C80      1.0000 0.89655  0.79684  0.91189  Biso   1.000  C
  C81      1.0000 0.90020  0.10344  0.91189  Biso   1.000  C
  C82      1.0000 0.90027  0.10344  0.91189  Biso   1.000  C
  H91      1.0000 0.02203  0.18802  0.86901  Biso   1.000  H
  H92      1.0000 0.02196  0.18802  0.86901  Biso   1.000  H
  H93      1.0000 0.72204  0.94802  0.85600  Biso   1.000  H
  H94      1.0000 0.72197  0.94802  0.85600  Biso   1.000  H
  H95      1.0000 0.71100  0.00398  0.81599  Biso   1.000  H
  H96      1.0000 0.71097  0.00406  0.81599  Biso   1.000  H
  H97      1.0000 0.70993  0.06400  0.85600  Biso   1.000  H
  H98      1.0000 0.91407  0.72298  0.26699  Biso   1.000  H
  N9       1.0000 0.85478  0.78266  0.22419  Biso   1.000  N
  H99      1.0000 0.91404  0.72307  0.26699  Biso   1.000  H
  H100     1.0000 0.01701  0.83403  0.24401  Biso   1.000  H
  H101     1.0000 0.81704  0.98296  0.24401  Biso   1.000  H
  H102     1.0000 0.81708  0.98305  0.24401  Biso   1.000  H
  N10      1.0000 0.92787  0.14530  0.22419  Biso   1.000  N
  H103     1.0000 0.80899  0.08597  0.26699  Biso   1.000  H
  H104     1.0000 0.80896  0.08606  0.26699  Biso   1.000  H
  C83      1.0000 0.84240  0.81033  0.94299  Biso   1.000  C
  H105     1.0000 0.96106  0.78101  0.91701  Biso   1.000  H
  H106     1.0000 0.81997  0.03901  0.91701  Biso   1.000  H
  C84      1.0000 0.96791  0.15767  0.94299  Biso   1.000  C
  C85      1.0000 0.89538  0.81128  0.19059  Biso   1.000  C
  C86      1.0000 0.91589  0.10456  0.19059  Biso   1.000  C
  C87      1.0000 0.91586  0.10465  0.19059  Biso   1.000  C
  C88      1.0000 0.87506  0.80929  0.98191  Biso   1.000  C
  H107     1.0000 0.77409  0.82097  0.93801  Biso   1.000  H
  H108     1.0000 0.77398  0.82106  0.93801  Biso   1.000  H
  C89      1.0000 0.93421  0.12489  0.98191  Biso   1.000  C
  C90      1.0000 0.93414  0.12489  0.98191  Biso   1.000  C
  H109     1.0000 0.04701  0.22599  0.93801  Biso   1.000  H
  H110     1.0000 0.04693  0.22599  0.93801  Biso   1.000  H
  C91      1.0000 0.82298  0.79667  0.15720  Biso   1.000  C
  H111     1.0000 0.98100  0.84501  0.18700  Biso   1.000  H
  C92      1.0000 0.82288  0.79675  0.15720  Biso   1.000  C
  H112     1.0000 0.86398  0.01903  0.18700  Biso   1.000  H
  C93      1.0000 0.97374  0.17713  0.15720  Biso   1.000  C
  H113     1.0000 0.86406  0.01903  0.18700  Biso   1.000  H
  C94      1.0000 0.81518  0.80039  0.01361  Biso   1.000  C
  H114     1.0000 0.95206  0.81604  0.98599  Biso   1.000  H
  C95      1.0000 0.98515  0.18482  0.01361  Biso   1.000  C
  H115     1.0000 0.86394  0.04800  0.98599  Biso   1.000  H
  C96      1.0000 0.69951  0.76588  0.16381  Biso   1.000  C
  C97      1.0000 0.87047  0.81120  0.12190  Biso   1.000  C
  C98      1.0000 0.69947  0.76596  0.16381  Biso   1.000  C
  C99      1.0000 0.94070  0.12947  0.12190  Biso   1.000  C
  C100     1.0000 0.94067  0.12956  0.12190  Biso   1.000  C
  C101     1.0000 0.06642  0.30046  0.16381  Biso   1.000  C
  C102     1.0000 0.06638  0.30055  0.16381  Biso   1.000  C
  C103     1.0000 0.86601  0.81111  0.05140  Biso   1.000  C
  C104     1.0000 0.86593  0.81111  0.05140  Biso   1.000  C
  C105     1.0000 0.69459  0.78136  0.01199  Biso   1.000  C
  C106     1.0000 0.69456  0.78144  0.01199  Biso   1.000  C
  C107     1.0000 0.94521  0.13414  0.05140  Biso   1.000  C
  C108     1.0000 0.08678  0.30539  0.01199  Biso   1.000  C
  H116     1.0000 0.64705  0.69003  0.15101  Biso   1.000  H
  H117     1.0000 0.68293  0.76000  0.19200  Biso   1.000  H
  H118     1.0000 0.68596  0.82702  0.15199  Biso   1.000  H
  C109     1.0000 0.81398  0.79917  0.08609  Biso   1.000  C
  H119     1.0000 0.95399  0.83204  0.12101  Biso   1.000  H
  C110     1.0000 0.81387  0.79926  0.08609  Biso   1.000  C
  C111     1.0000 0.98528  0.18612  0.08609  Biso   1.000  C
  H120     1.0000 0.87800  0.04601  0.12101  Biso   1.000  H
  H121     1.0000 0.07700  0.31698  0.19200  Biso   1.000  H
  H122     1.0000 0.04301  0.35296  0.15101  Biso   1.000  H
  H123     1.0000 0.14099  0.31404  0.15199  Biso   1.000  H
  H124     1.0000 0.07697  0.31706  0.19200  Biso   1.000  H
  H125     1.0000 0.04297  0.35304  0.15101  Biso   1.000  H
  H126     1.0000 0.94806  0.82901  0.05201  Biso   1.000  H
  H127     1.0000 0.64301  0.70802  0.99799  Biso   1.000  H
  H128     1.0000 0.69505  0.84700  0.99799  Biso   1.000  H
  H129     1.0000 0.66509  0.77703  0.03900  Biso   1.000  H
  H130     1.0000 0.88098  0.05198  0.05201  Biso   1.000  H
  H131     1.0000 0.88103  0.05207  0.05201  Biso   1.000  H
  H132     1.0000 0.15200  0.30504  0.99799  Biso   1.000  H
  H133     1.0000 0.06504  0.35702  0.99799  Biso   1.000  H
  H134     1.0000 0.06496  0.35702  0.99799  Biso   1.000  H
  H135     1.0000 0.11203  0.33505  0.03900  Biso   1.000  H
  H136     1.0000 0.73112  0.78101  0.08701  Biso   1.000  H
  H137     1.0000 0.73097  0.78101  0.08701  Biso   1.000  H
  H138     1.0000 0.05000  0.26898  0.08701  Biso   1.000  H
  H139     1.0000 0.04997  0.26906  0.08701  Biso   1.000  H
  C112     1.0000 0.20379  0.47785  0.78858  Biso   1.000  C
  C113     1.0000 0.14723  0.46582  0.75277  Biso   1.000  C
  C114     1.0000 0.15628  0.46340  0.82387  Biso   1.000  C
  H140     1.0000 0.28732  0.49869  0.78766  Biso   1.000  H
  C115     1.0000 0.19926  0.47776  0.71808  Biso   1.000  C
  H141     1.0000 0.06437  0.44766  0.75366  Biso   1.000  H
  C116     1.0000 0.22870  0.47793  0.85727  Biso   1.000  C
  C117     1.0000 0.03283  0.43253  0.83046  Biso   1.000  C
  C118     1.0000 0.14851  0.46703  0.68025  Biso   1.000  C
  H142     1.0000 0.28131  0.49566  0.71865  Biso   1.000  H
  N11      1.0000 0.18803  0.44930  0.89087  Biso   1.000  N
  H143     1.0000 0.31433  0.51166  0.85367  Biso   1.000  H
  H144     1.0000 0.01633  0.42665  0.85868  Biso   1.000  H
  H145     1.0000 0.01936  0.49367  0.81867  Biso   1.000  H
  H146     1.0000 0.98038  0.35668  0.81766  Biso   1.000  H
  C119     1.0000 0.20839  0.47594  0.64855  Biso   1.000  C
  C120     1.0000 0.02796  0.44809  0.67867  Biso   1.000  C
  C121     1.0000 0.26944  0.46548  0.92188  Biso   1.000  C
  C122     1.0000 0.17572  0.47698  0.60966  Biso   1.000  C
  H147     1.0000 0.28531  0.48269  0.65267  Biso   1.000  H
  H148     1.0000 0.02830  0.51365  0.66466  Biso   1.000  H
  H149     1.0000 0.99834  0.44368  0.70568  Biso   1.000  H
  H150     1.0000 0.97634  0.37467  0.66466  Biso   1.000  H
  C123     1.0000 0.26537  0.54721  0.95188  Biso   1.000  C
  H151     1.0000 0.24732  0.38963  0.93367  Biso   1.000  H
  H152     1.0000 0.35033  0.50068  0.91066  Biso   1.000  H
  C124     1.0000 0.22995  0.46349  0.57857  Biso   1.000  C
  H153     1.0000 0.10738  0.48771  0.60466  Biso   1.000  H
  N12      1.0000 0.33332  0.66665  0.94017  Biso   1.000  N
  H154     1.0000 0.29634  0.53666  0.97667  Biso   1.000  H
  H155     1.0000 0.18331  0.52766  0.95567  Biso   1.000  H
  C125     1.0000 0.19991  0.47127  0.53997  Biso   1.000  C
  H156     1.0000 0.29431  0.44766  0.58366  Biso   1.000  H
  C126     1.0000 0.45287  0.71820  0.95188  Biso   1.000  C
  C127     1.0000 0.28178  0.73463  0.95188  Biso   1.000  C
  C128     1.0000 0.23735  0.44204  0.50746  Biso   1.000  C
  H157     1.0000 0.14533  0.50068  0.53565  Biso   1.000  H
  C129     1.0000 0.53457  0.80399  0.92188  Biso   1.000  C
  H158     1.0000 0.46333  0.75962  0.97667  Biso   1.000  H
  H159     1.0000 0.47232  0.65567  0.95567  Biso   1.000  H
  C130     1.0000 0.19601  0.73056  0.92188  Biso   1.000  C
  H160     1.0000 0.24031  0.70367  0.97667  Biso   1.000  H
  H161     1.0000 0.34439  0.81671  0.95567  Biso   1.000  H
  C131     1.0000 0.20743  0.46444  0.46955  Biso   1.000  C
  C132     1.0000 0.31134  0.38764  0.50896  Biso   1.000  C
  N13      1.0000 0.55072  0.73878  0.89087  Biso   1.000  N
  H162     1.0000 0.61034  0.85770  0.93367  Biso   1.000  H
  H163     1.0000 0.49936  0.84966  0.91066  Biso   1.000  H
  N14      1.0000 0.26119  0.81195  0.89087  Biso   1.000  N
  H164     1.0000 0.14236  0.75270  0.93367  Biso   1.000  H
  H165     1.0000 0.15033  0.64970  0.91066  Biso   1.000  H
  C133     1.0000 0.23390  0.43815  0.43616  Biso   1.000  C
  H166     1.0000 0.16132  0.50466  0.46866  Biso   1.000  H
  H167     1.0000 0.32935  0.37363  0.48267  Biso   1.000  H
  H168     1.0000 0.26935  0.31265  0.52268  Biso   1.000  H
  H169     1.0000 0.38533  0.44066  0.52268  Biso   1.000  H
  C134     1.0000 0.52206  0.75080  0.85727  Biso   1.000  C
  C135     1.0000 0.24926  0.77130  0.85727  Biso   1.000  C
  C136     1.0000 0.20525  0.46548  0.39876  Biso   1.000  C
  H170     1.0000 0.27928  0.39663  0.43667  Biso   1.000  H
  C137     1.0000 0.53660  0.69285  0.82387  Biso   1.000  C
  H171     1.0000 0.48838  0.80269  0.85367  Biso   1.000  H
  C138     1.0000 0.30714  0.84378  0.82387  Biso   1.000  C
  H172     1.0000 0.19731  0.68568  0.85367  Biso   1.000  H
  C139     1.0000 0.22953  0.43599  0.36436  Biso   1.000  C
  H173     1.0000 0.16331  0.50967  0.39868  Biso   1.000  H
  C140     1.0000 0.52215  0.72598  0.78858  Biso   1.000  C
  C141     1.0000 0.56743  0.60023  0.83046  Biso   1.000  C
  C142     1.0000 0.27407  0.79621  0.78858  Biso   1.000  C
  C143     1.0000 0.39978  0.96719  0.83046  Biso   1.000  C
  C144     1.0000 0.19096  0.46851  0.32956  Biso   1.000  C
  C145     1.0000 0.29128  0.36878  0.35895  Biso   1.000  C
  C146     1.0000 0.53414  0.68135  0.75277  Biso   1.000  C
  H174     1.0000 0.50137  0.78868  0.78766  Biso   1.000  H
  H175     1.0000 0.57332  0.58967  0.85868  Biso   1.000  H
  H176     1.0000 0.64334  0.62366  0.81766  Biso   1.000  H
  H177     1.0000 0.50634  0.52567  0.81867  Biso   1.000  H
  C147     1.0000 0.31860  0.85277  0.75277  Biso   1.000  C
  H178     1.0000 0.21132  0.71266  0.78766  Biso   1.000  H
  H179     1.0000 0.41032  0.98363  0.85868  Biso   1.000  H
  H180     1.0000 0.47431  0.98069  0.81867  Biso   1.000  H
  H181     1.0000 0.37637  0.01969  0.81766  Biso   1.000  H
  N15      1.0000 0.20570  0.43867  0.29668  Biso   1.000  N
  H182     1.0000 0.15229  0.51564  0.33166  Biso   1.000  H
  H183     1.0000 0.31335  0.35166  0.38467  Biso   1.000  H
  H184     1.0000 0.36235  0.41566  0.34368  Biso   1.000  H
  H185     1.0000 0.23931  0.29466  0.34566  Biso   1.000  H
  C148     1.0000 0.52223  0.72148  0.71808  Biso   1.000  C
  H186     1.0000 0.55236  0.61666  0.75366  Biso   1.000  H
  C149     1.0000 0.27853  0.80079  0.71808  Biso   1.000  C
  H187     1.0000 0.38333  0.93563  0.75366  Biso   1.000  H
  C150     1.0000 0.16474  0.47404  0.26377  Biso   1.000  C
  C151     1.0000 0.53291  0.68144  0.68025  Biso   1.000  C
  H188     1.0000 0.50436  0.78566  0.71865  Biso   1.000  H
  C152     1.0000 0.31855  0.85147  0.68025  Biso   1.000  C
  H189     1.0000 0.21431  0.71863  0.71865  Biso   1.000  H
  C153     1.0000 0.26413  0.54608  0.23607  Biso   1.000  C
  H190     1.0000 0.10430  0.40364  0.24968  Biso   1.000  H
  H191     1.0000 0.13037  0.52170  0.27266  Biso   1.000  H
  C154     1.0000 0.52405  0.73247  0.64855  Biso   1.000  C
  C155     1.0000 0.55195  0.57990  0.67867  Biso   1.000  C
  C156     1.0000 0.26754  0.79154  0.64855  Biso   1.000  C
  C157     1.0000 0.42011  0.97204  0.67867  Biso   1.000  C
  N16      1.0000 0.33332  0.66665  0.24867  Biso   1.000  N
  H192     1.0000 0.23235  0.54470  0.20966  Biso   1.000  H
  H193     1.0000 0.31530  0.51166  0.23466  Biso   1.000  H
  C158     1.0000 0.52299  0.69874  0.60966  Biso   1.000  C
  H194     1.0000 0.51737  0.80269  0.65267  Biso   1.000  H
  H195     1.0000 0.55633  0.55465  0.70568  Biso   1.000  H
  H196     1.0000 0.62532  0.60170  0.66466  Biso   1.000  H
  H197     1.0000 0.48632  0.51469  0.66466  Biso   1.000  H
  C159     1.0000 0.30119  0.82423  0.60966  Biso   1.000  C
  H198     1.0000 0.19734  0.71465  0.65267  Biso   1.000  H
  H199     1.0000 0.48532  0.97169  0.66466  Biso   1.000  H
  H200     1.0000 0.44528  0.00170  0.70568  Biso   1.000  H
  H201     1.0000 0.39829  0.02367  0.66466  Biso   1.000  H
  C160     1.0000 0.45395  0.71811  0.23607  Biso   1.000  C
  C161     1.0000 0.28193  0.73584  0.23607  Biso   1.000  C
  C162     1.0000 0.53655  0.76646  0.57857  Biso   1.000  C
  H202     1.0000 0.51237  0.61969  0.60466  Biso   1.000  H
  C163     1.0000 0.23352  0.77009  0.57857  Biso   1.000  C
  H203     1.0000 0.38033  0.89264  0.60466  Biso   1.000  H
  C164     1.0000 0.52593  0.69069  0.26377  Biso   1.000  C
  H204     1.0000 0.45536  0.68767  0.20966  Biso   1.000  H
  H205     1.0000 0.48833  0.80365  0.23466  Biso   1.000  H
  C165     1.0000 0.30934  0.83530  0.26377  Biso   1.000  C
  H206     1.0000 0.31230  0.76767  0.20966  Biso   1.000  H
  H207     1.0000 0.19634  0.68464  0.23466  Biso   1.000  H
  C166     1.0000 0.52874  0.72866  0.53997  Biso   1.000  C
  H208     1.0000 0.55229  0.84663  0.58366  Biso   1.000  H
  C167     1.0000 0.27137  0.80010  0.53997  Biso   1.000  C
  H209     1.0000 0.15329  0.70566  0.58366  Biso   1.000  H
  N17      1.0000 0.56135  0.76706  0.29668  Biso   1.000  N
  H210     1.0000 0.59629  0.70064  0.24968  Biso   1.000  H
  H211     1.0000 0.47835  0.60870  0.27266  Biso   1.000  H
  N18      1.0000 0.23297  0.79431  0.29668  Biso   1.000  N
  H212     1.0000 0.29931  0.89567  0.24968  Biso   1.000  H
  H213     1.0000 0.39130  0.86964  0.27266  Biso   1.000  H
  C168     1.0000 0.55792  0.79526  0.50746  Biso   1.000  C
  H214     1.0000 0.49933  0.64468  0.53565  Biso   1.000  H
  C169     1.0000 0.20471  0.76265  0.50746  Biso   1.000  C
  H215     1.0000 0.35536  0.85467  0.53565  Biso   1.000  H
  C170     1.0000 0.53154  0.72243  0.32956  Biso   1.000  C
  C171     1.0000 0.27752  0.80909  0.32956  Biso   1.000  C
  C172     1.0000 0.53550  0.74293  0.46955  Biso   1.000  C
  C173     1.0000 0.61232  0.92369  0.50896  Biso   1.000  C
  C174     1.0000 0.25705  0.79258  0.46955  Biso   1.000  C
  C175     1.0000 0.07636  0.68870  0.50896  Biso   1.000  C
  C176     1.0000 0.56402  0.79353  0.36436  Biso   1.000  C
  H216     1.0000 0.48430  0.63664  0.33166  Biso   1.000  H
  C177     1.0000 0.20643  0.77043  0.36436  Biso   1.000  C
  H217     1.0000 0.36331  0.84767  0.33166  Biso   1.000  H
  C178     1.0000 0.56185  0.79578  0.43616  Biso   1.000  C
  H218     1.0000 0.49538  0.65670  0.46866  Biso   1.000  H
  H219     1.0000 0.62637  0.95569  0.48267  Biso   1.000  H
  H220     1.0000 0.68729  0.95664  0.52268  Biso   1.000  H
  H221     1.0000 0.55939  0.94471  0.52268  Biso   1.000  H
  C179     1.0000 0.20422  0.76602  0.43616  Biso   1.000  C
  H222     1.0000 0.34331  0.83867  0.46866  Biso   1.000  H
  H223     1.0000 0.04432  0.67063  0.48267  Biso   1.000  H
  H224     1.0000 0.04333  0.73065  0.52268  Biso   1.000  H
  H225     1.0000 0.05537  0.61467  0.52268  Biso   1.000  H
  C180     1.0000 0.53450  0.73973  0.39876  Biso   1.000  C
  C181     1.0000 0.63126  0.92248  0.35895  Biso   1.000  C
  C182     1.0000 0.26023  0.79474  0.39876  Biso   1.000  C
  C183     1.0000 0.07755  0.70877  0.35895  Biso   1.000  C
  H226     1.0000 0.60336  0.88270  0.43667  Biso   1.000  H
  H227     1.0000 0.11737  0.72070  0.43667  Biso   1.000  H
  H228     1.0000 0.49035  0.65368  0.39868  Biso   1.000  H
  H229     1.0000 0.64831  0.96166  0.38467  Biso   1.000  H
  H230     1.0000 0.58435  0.94670  0.34368  Biso   1.000  H
  H231     1.0000 0.70537  0.94471  0.34566  Biso   1.000  H
  H232     1.0000 0.34636  0.83668  0.39868  Biso   1.000  H
  H233     1.0000 0.03832  0.68663  0.38467  Biso   1.000  H
  H234     1.0000 0.05331  0.63768  0.34368  Biso   1.000  H
  H235     1.0000 0.05534  0.76066  0.34566  Biso   1.000  H
  C184     1.0000 0.61515  0.40130  0.61852  Biso   1.000  C
  C185     1.0000 0.52938  0.39724  0.58852  Biso   1.000  C
  N19      1.0000 0.66670  0.33332  0.60685  Biso   1.000  N
  H236     1.0000 0.57368  0.37034  0.64332  Biso   1.000  H
  H237     1.0000 0.67764  0.48329  0.62232  Biso   1.000  H
  N20      1.0000 0.59457  0.47862  0.55754  Biso   1.000  N
  H238     1.0000 0.47562  0.41929  0.60035  Biso   1.000  H
  H239     1.0000 0.48371  0.31637  0.57733  Biso   1.000  H
  C186     1.0000 0.78617  0.38487  0.61852  Biso   1.000  C
  C187     1.0000 0.59862  0.21380  0.61852  Biso   1.000  C
  C188     1.0000 0.58256  0.43797  0.52395  Biso   1.000  C
  C189     1.0000 0.86787  0.47067  0.58852  Biso   1.000  C
  H240     1.0000 0.79663  0.42630  0.64332  Biso   1.000  H
  H241     1.0000 0.80569  0.32234  0.62232  Biso   1.000  H
  C190     1.0000 0.60274  0.13215  0.58852  Biso   1.000  C
  H242     1.0000 0.62964  0.20333  0.64332  Biso   1.000  H
  H243     1.0000 0.51669  0.19434  0.62232  Biso   1.000  H
  C191     1.0000 0.64044  0.51045  0.49052  Biso   1.000  C
  H244     1.0000 0.53068  0.35235  0.52032  Biso   1.000  H
  N21      1.0000 0.88410  0.40546  0.55754  Biso   1.000  N
  H245     1.0000 0.94371  0.52438  0.60035  Biso   1.000  H
  H246     1.0000 0.83266  0.51633  0.57733  Biso   1.000  H
  N22      1.0000 0.52136  0.11589  0.55754  Biso   1.000  N
  H247     1.0000 0.58062  0.05630  0.60035  Biso   1.000  H
  H248     1.0000 0.68371  0.16735  0.57733  Biso   1.000  H
  C192     1.0000 0.60733  0.46280  0.45523  Biso   1.000  C
  C193     1.0000 0.73308  0.63387  0.49714  Biso   1.000  C
  C194     1.0000 0.85531  0.41739  0.52395  Biso   1.000  C
  C195     1.0000 0.56208  0.14461  0.52395  Biso   1.000  C
  C196     1.0000 0.65198  0.51945  0.41944  Biso   1.000  C
  H249     1.0000 0.54470  0.37934  0.45434  Biso   1.000  H
  H250     1.0000 0.74362  0.65030  0.52533  Biso   1.000  H
  H251     1.0000 0.70967  0.68637  0.48434  Biso   1.000  H
  H252     1.0000 0.80769  0.64736  0.48534  Biso   1.000  H
  C197     1.0000 0.86998  0.35953  0.49052  Biso   1.000  C
  H253     1.0000 0.82168  0.46937  0.52032  Biso   1.000  H
  C198     1.0000 0.48953  0.12999  0.49052  Biso   1.000  C
  H254     1.0000 0.64770  0.17834  0.52032  Biso   1.000  H
  C199     1.0000 0.61191  0.46747  0.38473  Biso   1.000  C
  H255     1.0000 0.71663  0.60230  0.42034  Biso   1.000  H
  C200     1.0000 0.90073  0.26690  0.49714  Biso   1.000  C
  C201     1.0000 0.85545  0.39266  0.45523  Biso   1.000  C
  C202     1.0000 0.36613  0.09920  0.49714  Biso   1.000  C
  C203     1.0000 0.53717  0.14452  0.45523  Biso   1.000  C
  C204     1.0000 0.65185  0.51815  0.34693  Biso   1.000  C
  H256     1.0000 0.54768  0.38530  0.38533  Biso   1.000  H
  H257     1.0000 0.90669  0.25635  0.52533  Biso   1.000  H
  H258     1.0000 0.97664  0.29034  0.48434  Biso   1.000  H
  H259     1.0000 0.83964  0.19235  0.48534  Biso   1.000  H
  C205     1.0000 0.86744  0.34803  0.41944  Biso   1.000  C
  H260     1.0000 0.83468  0.45536  0.45434  Biso   1.000  H
  H261     1.0000 0.34963  0.09332  0.52533  Biso   1.000  H
  H262     1.0000 0.31368  0.02335  0.48434  Biso   1.000  H
  H263     1.0000 0.35266  0.16035  0.48534  Biso   1.000  H
  C206     1.0000 0.48053  0.13250  0.41944  Biso   1.000  C
  H264     1.0000 0.62069  0.16536  0.45434  Biso   1.000  H
  C207     1.0000 0.60084  0.45821  0.31523  Biso   1.000  C
  C208     1.0000 0.75348  0.63871  0.34535  Biso   1.000  C
  C209     1.0000 0.85560  0.38816  0.38473  Biso   1.000  C
  H265     1.0000 0.88566  0.28333  0.42034  Biso   1.000  H
  C210     1.0000 0.53256  0.14443  0.38473  Biso   1.000  C
  H266     1.0000 0.39767  0.11434  0.42034  Biso   1.000  H
  C211     1.0000 0.63456  0.49091  0.27634  Biso   1.000  C
  H267     1.0000 0.53064  0.38133  0.31934  Biso   1.000  H
  H268     1.0000 0.77868  0.66829  0.37233  Biso   1.000  H
  H269     1.0000 0.73166  0.69035  0.33134  Biso   1.000  H
  H270     1.0000 0.81870  0.63837  0.33134  Biso   1.000  H
  C212     1.0000 0.86629  0.34811  0.34693  Biso   1.000  C
  H271     1.0000 0.83766  0.45233  0.38533  Biso   1.000  H
  C213     1.0000 0.48188  0.13371  0.34693  Biso   1.000  C
  H272     1.0000 0.61469  0.16234  0.38533  Biso   1.000  H
  C214     1.0000 0.56690  0.43676  0.24525  Biso   1.000  C
  H273     1.0000 0.71363  0.55932  0.27134  Biso   1.000  H
  C215     1.0000 0.85735  0.39914  0.31523  Biso   1.000  C
  C216     1.0000 0.88521  0.24649  0.34535  Biso   1.000  C
  C217     1.0000 0.54176  0.14262  0.31523  Biso   1.000  C
  C218     1.0000 0.36126  0.11477  0.34535  Biso   1.000  C
  C219     1.0000 0.60467  0.46678  0.20664  Biso   1.000  C
  H274     1.0000 0.48667  0.37233  0.25034  Biso   1.000  H
  C220     1.0000 0.85636  0.36541  0.27634  Biso   1.000  C
  H275     1.0000 0.85067  0.46937  0.31934  Biso   1.000  H
  H276     1.0000 0.88963  0.22132  0.37233  Biso   1.000  H
  H277     1.0000 0.95869  0.26837  0.33134  Biso   1.000  H
  H278     1.0000 0.81969  0.18137  0.33134  Biso   1.000  H
  C221     1.0000 0.50910  0.14366  0.27634  Biso   1.000  C
  H279     1.0000 0.61869  0.14936  0.31934  Biso   1.000  H
  H280     1.0000 0.33171  0.11036  0.37233  Biso   1.000  H
  H281     1.0000 0.30964  0.04134  0.33134  Biso   1.000  H
  H282     1.0000 0.36168  0.18033  0.33134  Biso   1.000  H
  C222     1.0000 0.53808  0.42933  0.17414  Biso   1.000  C
  H283     1.0000 0.68866  0.52135  0.20233  Biso   1.000  H
  C223     1.0000 0.86985  0.43313  0.24525  Biso   1.000  C
  H284     1.0000 0.84567  0.28636  0.27134  Biso   1.000  H
  C224     1.0000 0.56325  0.13016  0.24525  Biso   1.000  C
  H285     1.0000 0.44064  0.15429  0.27134  Biso   1.000  H
  C225     1.0000 0.40961  0.35529  0.17564  Biso   1.000  C
  C226     1.0000 0.59035  0.45925  0.13623  Biso   1.000  C
  C227     1.0000 0.86204  0.39534  0.20664  Biso   1.000  C
  H286     1.0000 0.88567  0.51331  0.25034  Biso   1.000  H
  C228     1.0000 0.53328  0.13795  0.20664  Biso   1.000  C
  H287     1.0000 0.62769  0.11434  0.25034  Biso   1.000  H
  H288     1.0000 0.37762  0.33730  0.14935  Biso   1.000  H
  H289     1.0000 0.37663  0.39733  0.18933  Biso   1.000  H
  H290     1.0000 0.38867  0.28135  0.18933  Biso   1.000  H
  C229     1.0000 0.53752  0.43270  0.10283  Biso   1.000  C
  H291     1.0000 0.67669  0.50535  0.13534  Biso   1.000  H
  C230     1.0000 0.89129  0.46193  0.17414  Biso   1.000  C
  H292     1.0000 0.83271  0.31136  0.20233  Biso   1.000  H
  C231     1.0000 0.57065  0.10872  0.17414  Biso   1.000  C
  H293     1.0000 0.47870  0.16735  0.20233  Biso   1.000  H
  C232     1.0000 0.59353  0.46141  0.06544  Biso   1.000  C
  H294     1.0000 0.45063  0.38729  0.10332  Biso   1.000  H
  C233     1.0000 0.86887  0.40961  0.13623  Biso   1.000  C
  C234     1.0000 0.94570  0.59037  0.17564  Biso   1.000  C
  C235     1.0000 0.54073  0.13112  0.13623  Biso   1.000  C
  C236     1.0000 0.64464  0.05431  0.17564  Biso   1.000  C
  C237     1.0000 0.53973  0.43711  0.03104  Biso   1.000  C
  H295     1.0000 0.67966  0.50336  0.06532  Biso   1.000  H
  C238     1.0000 0.89515  0.46245  0.10283  Biso   1.000  C
  H296     1.0000 0.82864  0.32329  0.13534  Biso   1.000  H
  H297     1.0000 0.95967  0.62237  0.14935  Biso   1.000  H
  H298     1.0000 0.89265  0.61130  0.18933  Biso   1.000  H
  H299     1.0000 0.02067  0.62332  0.18933  Biso   1.000  H
  C239     1.0000 0.56728  0.10482  0.10283  Biso   1.000  C
  H300     1.0000 0.49470  0.17133  0.13534  Biso   1.000  H
  H301     1.0000 0.66265  0.04030  0.14935  Biso   1.000  H
  H302     1.0000 0.71863  0.10733  0.18933  Biso   1.000  H
  H303     1.0000 0.60265  0.97933  0.18933  Biso   1.000  H
  C240     1.0000 0.41085  0.37544  0.02563  Biso   1.000  C
  C241     1.0000 0.61089  0.47577  0.99623  Biso   1.000  C
  C242     1.0000 0.86787  0.40641  0.06544  Biso   1.000  C
  H304     1.0000 0.93666  0.54937  0.10332  Biso   1.000  H
  C243     1.0000 0.53855  0.13215  0.06544  Biso   1.000  C
  H305     1.0000 0.61266  0.06331  0.10332  Biso   1.000  H
  H306     1.0000 0.37162  0.35330  0.05134  Biso   1.000  H
  H307     1.0000 0.38669  0.30435  0.01033  Biso   1.000  H
  H308     1.0000 0.38864  0.42734  0.01234  Biso   1.000  H
  N23      1.0000 0.56623  0.46089  0.96333  Biso   1.000  N
  H309     1.0000 0.69669  0.51434  0.99833  Biso   1.000  H
  C244     1.0000 0.89732  0.46020  0.03104  Biso   1.000  C
  H310     1.0000 0.82365  0.32035  0.06532  Biso   1.000  H
  C245     1.0000 0.56290  0.10266  0.03104  Biso   1.000  C
  H311     1.0000 0.49668  0.17635  0.06532  Biso   1.000  H
  C246     1.0000 0.64272  0.50198  0.93045  Biso   1.000  C
  C247     1.0000 0.86484  0.38911  0.99623  Biso   1.000  C
  C248     1.0000 0.96457  0.58916  0.02563  Biso   1.000  C
  C249     1.0000 0.52422  0.13509  0.99623  Biso   1.000  C
  C250     1.0000 0.62458  0.03546  0.02563  Biso   1.000  C
  C251     1.0000 0.61523  0.40251  0.90275  Biso   1.000  C
  H312     1.0000 0.63268  0.56234  0.91632  Biso   1.000  H
  H313     1.0000 0.72468  0.53631  0.93934  Biso   1.000  H
  N24      1.0000 0.89465  0.43374  0.96333  Biso   1.000  N
  H314     1.0000 0.81767  0.30331  0.99833  Biso   1.000  H
  H315     1.0000 0.98168  0.62833  0.05134  Biso   1.000  H
  H316     1.0000 0.91765  0.61337  0.01033  Biso   1.000  H
  H317     1.0000 0.03863  0.61130  0.01234  Biso   1.000  H
  N25      1.0000 0.53908  0.10534  0.96333  Biso   1.000  N
  H318     1.0000 0.48566  0.18232  0.99833  Biso   1.000  H
  H319     1.0000 0.64665  0.01834  0.05134  Biso   1.000  H
  H320     1.0000 0.69565  0.08234  0.01033  Biso   1.000  H
  H321     1.0000 0.57269  0.96134  0.01234  Biso   1.000  H
  N26      1.0000 0.66670  0.33332  0.91535  Biso   1.000  N
  H322     1.0000 0.64568  0.43434  0.87634  Biso   1.000  H
  H323     1.0000 0.52964  0.35131  0.90134  Biso   1.000  H
  C252     1.0000 0.85931  0.35737  0.93045  Biso   1.000  C
  C253     1.0000 0.49804  0.14072  0.93045  Biso   1.000  C
  C254     1.0000 0.78729  0.38470  0.90275  Biso   1.000  C
  C255     1.0000 0.59750  0.21276  0.90275  Biso   1.000  C
  H324     1.0000 0.92967  0.36731  0.91632  Biso   1.000  H
  H325     1.0000 0.81168  0.27529  0.93934  Biso   1.000  H
  H326     1.0000 0.43767  0.07031  0.91632  Biso   1.000  H
  H327     1.0000 0.46367  0.18837  0.93934  Biso   1.000  H
  H328     1.0000 0.78866  0.35434  0.87634  Biso   1.000  H
  H329     1.0000 0.82163  0.47032  0.90134  Biso   1.000  H
  H330     1.0000 0.56565  0.21138  0.87634  Biso   1.000  H
  H331     1.0000 0.64868  0.17834  0.90134  Biso   1.000  H
