data_image0
_cell_length_a       21.199
_cell_length_b       9.973
_cell_length_c       15.271
_cell_angle_alpha    90
_cell_angle_beta     110.87
_cell_angle_gamma    90

_symmetry_space_group_name_H-M    "P 1"
_symmetry_int_tables_number       1

loop_
  _symmetry_equiv_pos_as_xyz
  'x, y, z'

loop_
  _atom_site_label
  _atom_site_occupancy
  _atom_site_fract_x
  _atom_site_fract_y
  _atom_site_fract_z
  _atom_site_thermal_displace_type
  _atom_site_B_iso_or_equiv
  _atom_site_type_symbol
  O1       1.0000 0.58471  0.15111  0.42042  Biso   1.000  O
  C1       1.0000 0.60448  0.27213  0.38699  Biso   1.000  C
  C2       1.0000 0.57559  0.28296  0.27808  Biso   1.000  C
  C3       1.0000 0.68197  0.28206  0.42427  Biso   1.000  C
  O2       1.0000 0.50301  0.28577  0.24451  Biso   1.000  O
  C4       1.0000 0.60388  0.40610  0.24809  Biso   1.000  C
  O3       1.0000 0.70358  0.39597  0.38531  Biso   1.000  O
  O4       1.0000 0.70618  0.16344  0.39288  Biso   1.000  O
  C5       1.0000 0.68181  0.39517  0.28467  Biso   1.000  C
  O5       1.0000 0.57650  0.40750  0.14857  Biso   1.000  O
  C6       1.0000 0.75271  0.08252  0.46737  Biso   1.000  C
  C7       1.0000 0.71830  0.50516  0.25370  Biso   1.000  C
  C8       1.0000 0.55280  0.53294  0.10491  Biso   1.000  C
  C9       1.0000 0.82589  0.11471  0.46983  Biso   1.000  C
  C10      1.0000 0.73291  0.93733  0.43177  Biso   1.000  C
  O6       1.0000 0.69901  0.63672  0.26953  Biso   1.000  O
  C11      1.0000 0.48192  0.50697  0.02999  Biso   1.000  C
  O7       1.0000 0.59631  0.58628  0.06272  Biso   1.000  O
  C12      1.0000 0.85071  0.24897  0.51657  Biso   1.000  C
  O8       1.0000 0.87078  0.01514  0.53227  Biso   1.000  O
  C13      1.0000 0.78660  0.83927  0.49597  Biso   1.000  C
  O9       1.0000 0.66880  0.91216  0.44151  Biso   1.000  O
  O10      1.0000 0.43849  0.44811  0.07253  Biso   1.000  O
  C14      1.0000 0.48769  0.42334  0.95157  Biso   1.000  C
  C15      1.0000 0.60719  0.50246  0.99481  Biso   1.000  C
  O11      1.0000 0.84531  0.25098  0.60838  Biso   1.000  O
  C16      1.0000 0.85700  0.88118  0.49751  Biso   1.000  C
  O12      1.0000 0.77269  0.70611  0.45812  Biso   1.000  O
  C17      1.0000 0.53882  0.48030  0.91240  Biso   1.000  C
  O13      1.0000 0.42489  0.41572  0.87301  Biso   1.000  O
  C18      1.0000 0.66118  0.56603  0.96552  Biso   1.000  C
  O14      1.0000 0.85888  0.86905  0.40851  Biso   1.000  O
  O15      1.0000 0.54720  0.38604  0.84799  Biso   1.000  O
  O16      1.0000 0.64178  0.69287  0.92207  Biso   1.000  O
  C19      1.0000 0.91868  0.81189  0.39890  Biso   1.000  C
  C20      1.0000 0.52961  0.42906  0.75499  Biso   1.000  C
  C21      1.0000 0.89789  0.67472  0.35097  Biso   1.000  C
  C22      1.0000 0.94421  0.90705  0.34067  Biso   1.000  C
  C23      1.0000 0.48659  0.31615  0.69143  Biso   1.000  C
  O17      1.0000 0.58688  0.45403  0.73131  Biso   1.000  O
  H1       1.0000 0.50499  0.51188  0.74659  Biso   1.000  H
  C24      1.0000 0.95252  0.62088  0.32027  Biso   1.000  C
  O18      1.0000 0.88319  0.58287  0.41187  Biso   1.000  O
  C25      1.0000 0.97629  0.03509  0.39673  Biso   1.000  C
  O19      1.0000 0.99390  0.84448  0.31242  Biso   1.000  O
  C26      1.0000 0.52952  0.18931  0.70650  Biso   1.000  C
  O20      1.0000 0.42662  0.29460  0.71028  Biso   1.000  O
  H2       1.0000 0.47298  0.34202  0.62682  Biso   1.000  H
  C27      1.0000 0.63170  0.34202  0.74091  Biso   1.000  C
  C28      1.0000 0.97239  0.72586  0.26042  Biso   1.000  C
  O21      1.0000 0.92920  0.50145  0.26617  Biso   1.000  O
  O22      1.0000 0.98840  0.13135  0.33639  Biso   1.000  O
  C29      1.0000 0.59312  0.22019  0.68561  Biso   1.000  C
  O23      1.0000 0.49239  0.08593  0.64307  Biso   1.000  O
  H3       1.0000 0.54090  0.15953  0.77013  Biso   1.000  H
  C30      1.0000 0.68420  0.38945  0.70117  Biso   1.000  C
  H4       1.0000 0.65190  0.31415  0.80510  Biso   1.000  H
  O24      1.0000 0.91389  0.75253  0.17913  Biso   1.000  O
  O25      1.0000 0.63562  0.10338  0.71848  Biso   1.000  O
  H5       1.0000 0.58163  0.23995  0.62023  Biso   1.000  H
  O26      1.0000 0.65401  0.43868  0.60782  Biso   1.000  O
  H6       1.0000 0.71330  0.31565  0.70117  Biso   1.000  H
  H7       1.0000 0.71030  0.46014  0.74021  Biso   1.000  H
  C31      1.0000 0.91740  0.72827  0.09097  Biso   1.000  C
  C32      1.0000 0.66129  0.04101  0.65548  Biso   1.000  C
  C33      1.0000 0.85608  0.64534  0.03182  Biso   1.000  C
  C34      1.0000 0.91789  0.86052  0.03939  Biso   1.000  C
  H8       1.0000 0.95848  0.68044  0.09980  Biso   1.000  H
  C35      1.0000 0.65109  0.88920  0.66059  Biso   1.000  C
  O27      1.0000 0.73108  0.06848  0.67798  Biso   1.000  O
  H9       1.0000 0.63782  0.07510  0.59360  Biso   1.000  H
  C36      1.0000 0.85631  0.65607  0.93749  Biso   1.000  C
  O28      1.0000 0.85562  0.52051  0.07632  Biso   1.000  O
  H10      1.0000 0.81561  0.69317  0.02649  Biso   1.000  H
  O29      1.0000 0.92012  0.83124  0.94863  Biso   1.000  O
  C37      1.0000 0.97851  0.94896  0.09090  Biso   1.000  C
  H11      1.0000 0.87761  0.90805  0.03539  Biso   1.000  H
  C38      1.0000 0.69110  0.84127  0.76207  Biso   1.000  C
  O30      1.0000 0.57951  0.86634  0.63880  Biso   1.000  O
  H12      1.0000 0.66650  0.84137  0.61749  Biso   1.000  H
  C39      1.0000 0.77180  0.02737  0.77308  Biso   1.000  C
  C40      1.0000 0.86380  0.75775  0.88892  Biso   1.000  C
  O31      1.0000 0.79919  0.55229  0.87757  Biso   1.000  O
  H13      1.0000 0.89590  0.57295  0.94709  Biso   1.000  H
  H14      1.0000 0.98011  0.02186  0.05081  Biso   1.000  H
  H15      1.0000 0.97352  0.98325  0.14661  Biso   1.000  H
  O32      1.0000 0.04141  0.87436  0.11669  Biso   1.000  O
  C41      1.0000 0.76539  0.87476  0.78100  Biso   1.000  C
  O33      1.0000 0.68391  0.69829  0.76621  Biso   1.000  O
  H16      1.0000 0.67531  0.88318  0.80700  Biso   1.000  H
  C42      1.0000 0.84343  0.07801  0.78912  Biso   1.000  C
  H17      1.0000 0.75770  0.06457  0.82122  Biso   1.000  H
  O34      1.0000 0.80201  0.83295  0.87589  Biso   1.000  O
  H18      1.0000 0.87051  0.74160  0.83089  Biso   1.000  H
  H19      1.0000 0.78220  0.83134  0.73768  Biso   1.000  H
  O35      1.0000 0.87048  0.01925  0.72710  Biso   1.000  O
  H20      1.0000 0.87192  0.05605  0.85199  Biso   1.000  H
  H21      1.0000 0.84202  0.17297  0.78071  Biso   1.000  H
  O36      1.0000 0.41530  0.65106  0.57957  Biso   1.000  O
  C43      1.0000 0.39549  0.77208  0.61300  Biso   1.000  C
  C44      1.0000 0.31799  0.78211  0.57572  Biso   1.000  C
  C45      1.0000 0.42443  0.78301  0.72191  Biso   1.000  C
  O37      1.0000 0.29378  0.66339  0.60712  Biso   1.000  O
  O38      1.0000 0.29638  0.89602  0.61469  Biso   1.000  O
  C46      1.0000 0.39608  0.90615  0.75191  Biso   1.000  C
  O39      1.0000 0.49701  0.78582  0.75548  Biso   1.000  O
  C47      1.0000 0.24730  0.58247  0.53262  Biso   1.000  C
  C48      1.0000 0.31820  0.89522  0.71532  Biso   1.000  C
  O40      1.0000 0.42351  0.90745  0.85142  Biso   1.000  O
  C49      1.0000 0.26710  0.43728  0.56822  Biso   1.000  C
  C50      1.0000 0.17408  0.61466  0.53017  Biso   1.000  C
  C51      1.0000 0.28171  0.00521  0.74630  Biso   1.000  C
  C52      1.0000 0.44721  0.03289  0.89508  Biso   1.000  C
  C53      1.0000 0.21341  0.33932  0.50403  Biso   1.000  C
  O41      1.0000 0.33121  0.41221  0.55848  Biso   1.000  O
  O42      1.0000 0.12918  0.51509  0.46772  Biso   1.000  O
  C54      1.0000 0.14930  0.74902  0.48342  Biso   1.000  C
  O43      1.0000 0.30102  0.13667  0.73053  Biso   1.000  O
  C55      1.0000 0.51809  0.00702  0.97000  Biso   1.000  C
  O44      1.0000 0.40370  0.08633  0.93727  Biso   1.000  O
  C56      1.0000 0.14301  0.38123  0.50248  Biso   1.000  C
  O45      1.0000 0.22727  0.20606  0.54187  Biso   1.000  O
  O46      1.0000 0.15470  0.75103  0.39162  Biso   1.000  O
  O47      1.0000 0.56149  0.94806  0.92753  Biso   1.000  O
  C57      1.0000 0.51232  0.92329  0.04842  Biso   1.000  C
  C58      1.0000 0.39278  0.00251  0.00518  Biso   1.000  C
  O48      1.0000 0.14108  0.36900  0.59149  Biso   1.000  O
  C59      1.0000 0.46119  0.98035  0.08760  Biso   1.000  C
  O49      1.0000 0.57508  0.91567  0.12698  Biso   1.000  O
  C60      1.0000 0.33878  0.06598  0.03447  Biso   1.000  C
  C61      1.0000 0.08128  0.31194  0.60109  Biso   1.000  C
  O50      1.0000 0.45281  0.88599  0.15200  Biso   1.000  O
  O51      1.0000 0.35819  0.19292  0.07792  Biso   1.000  O
  C62      1.0000 0.10212  0.17467  0.64903  Biso   1.000  C
  C63      1.0000 0.05580  0.40700  0.65933  Biso   1.000  C
  C64      1.0000 0.47041  0.92911  0.24500  Biso   1.000  C
  C65      1.0000 0.04750  0.12093  0.67972  Biso   1.000  C
  O52      1.0000 0.11682  0.08292  0.58812  Biso   1.000  O
  C66      1.0000 0.02369  0.53514  0.60333  Biso   1.000  C
  O53      1.0000 0.00611  0.34453  0.68757  Biso   1.000  O
  C67      1.0000 0.51339  0.81620  0.30863  Biso   1.000  C
  O54      1.0000 0.41309  0.95398  0.26869  Biso   1.000  O
  H22      1.0000 0.49502  0.01193  0.25341  Biso   1.000  H
  C68      1.0000 0.02757  0.22591  0.73957  Biso   1.000  C
  O55      1.0000 0.07081  0.00150  0.73382  Biso   1.000  O
  O56      1.0000 0.01161  0.63140  0.66360  Biso   1.000  O
  C69      1.0000 0.47049  0.68926  0.29350  Biso   1.000  C
  O57      1.0000 0.57339  0.79465  0.28971  Biso   1.000  O
  H23      1.0000 0.52698  0.84197  0.37318  Biso   1.000  H
  C70      1.0000 0.36831  0.84197  0.25909  Biso   1.000  C
  O58      1.0000 0.08608  0.25248  0.82087  Biso   1.000  O
  C71      1.0000 0.40689  0.72024  0.31438  Biso   1.000  C
  O59      1.0000 0.50762  0.58588  0.35692  Biso   1.000  O
  H24      1.0000 0.45909  0.65948  0.22993  Biso   1.000  H
  C72      1.0000 0.31581  0.88950  0.29882  Biso   1.000  C
  H25      1.0000 0.34811  0.81410  0.19489  Biso   1.000  H
  C73      1.0000 0.08262  0.22832  0.90903  Biso   1.000  C
  O60      1.0000 0.36439  0.60343  0.28151  Biso   1.000  O
  H26      1.0000 0.41838  0.73990  0.37977  Biso   1.000  H
  O61      1.0000 0.34600  0.93873  0.39217  Biso   1.000  O
  H27      1.0000 0.28671  0.81570  0.29882  Biso   1.000  H
  H28      1.0000 0.28971  0.96009  0.25979  Biso   1.000  H
  C74      1.0000 0.14388  0.14529  0.96818  Biso   1.000  C
  C75      1.0000 0.08213  0.36047  0.96061  Biso   1.000  C
  H29      1.0000 0.04148  0.18039  0.90020  Biso   1.000  H
  C76      1.0000 0.33872  0.54096  0.34451  Biso   1.000  C
  O62      1.0000 0.14440  0.02046  0.92368  Biso   1.000  O
  H30      1.0000 0.18440  0.19322  0.97350  Biso   1.000  H
  C77      1.0000 0.14370  0.15612  0.06251  Biso   1.000  C
  C78      1.0000 0.02150  0.44901  0.90910  Biso   1.000  C
  H31      1.0000 0.12240  0.40810  0.96460  Biso   1.000  H
  O63      1.0000 0.07991  0.33119  0.05143  Biso   1.000  O
  C79      1.0000 0.34892  0.38915  0.33940  Biso   1.000  C
  O64      1.0000 0.26889  0.56854  0.32202  Biso   1.000  O
  H32      1.0000 0.36220  0.57505  0.40640  Biso   1.000  H
  C80      1.0000 0.13621  0.25770  0.11107  Biso   1.000  C
  O65      1.0000 0.20083  0.05234  0.12243  Biso   1.000  O
  H33      1.0000 0.10411  0.07290  0.05291  Biso   1.000  H
  H34      1.0000 0.02649  0.48330  0.85338  Biso   1.000  H
  H35      1.0000 0.01990  0.52191  0.94918  Biso   1.000  H
  O66      1.0000 0.95860  0.37441  0.88331  Biso   1.000  O
  C81      1.0000 0.30891  0.34132  0.23792  Biso   1.000  C
  O67      1.0000 0.42050  0.36629  0.36119  Biso   1.000  O
  H36      1.0000 0.33351  0.34142  0.38250  Biso   1.000  H
  C82      1.0000 0.22821  0.52742  0.22692  Biso   1.000  C
  O68      1.0000 0.19800  0.33290  0.12411  Biso   1.000  O
  H37      1.0000 0.12950  0.24155  0.16910  Biso   1.000  H
  C83      1.0000 0.23462  0.37481  0.21900  Biso   1.000  C
  O69      1.0000 0.31611  0.19834  0.23379  Biso   1.000  O
  H38      1.0000 0.32470  0.38323  0.19300  Biso   1.000  H
  C84      1.0000 0.15659  0.57796  0.21087  Biso   1.000  C
  H39      1.0000 0.24232  0.56462  0.17877  Biso   1.000  H
  H40      1.0000 0.21781  0.33129  0.26231  Biso   1.000  H
  O70      1.0000 0.12948  0.51930  0.27289  Biso   1.000  O
  H41      1.0000 0.12809  0.55610  0.14801  Biso   1.000  H
  H42      1.0000 0.15799  0.67302  0.21928  Biso   1.000  H
  Ne1      1.0000 0.27179  0.58896  0.92401  Biso   1.000  Ne
  He1      1.0000 0.32862  0.48637  0.91504  Biso   1.000  He
  He2      1.0000 0.22947  0.68866  0.91486  Biso   1.000  He
  Ar1      1.0000 0.30513  0.50522  0.90996  Biso   1.000  Ar
  Ne2      1.0000 0.72821  0.08896  0.07599  Biso   1.000  Ne
  He3      1.0000 0.76172  0.17492  0.08433  Biso   1.000  He
  He4      1.0000 0.69301  0.00334  0.08944  Biso   1.000  He
  Ar2      1.0000 0.69338  0.00043  0.08747  Biso   1.000  Ar
