data_image0
_cell_length_a       15.24
_cell_length_b       17.136
_cell_length_c       17.585
_cell_angle_alpha    90
_cell_angle_beta     111.54
_cell_angle_gamma    90

_symmetry_space_group_name_H-M    "P 1"
_symmetry_int_tables_number       1

loop_
  _symmetry_equiv_pos_as_xyz
  'x, y, z'

loop_
  _atom_site_label
  _atom_site_occupancy
  _atom_site_fract_x
  _atom_site_fract_y
  _atom_site_fract_z
  _atom_site_thermal_displace_type
  _atom_site_B_iso_or_equiv
  _atom_site_type_symbol
  O1       1.0000 0.58332  0.39613  0.67543  Biso   1.000  O
  C1       1.0000 0.57995  0.40412  0.60073  Biso   1.000  C
  C2       1.0000 0.64992  0.42478  0.73150  Biso   1.000  C
  C3       1.0000 0.65443  0.39280  0.57254  Biso   1.000  C
  H1       1.0000 0.52973  0.36992  0.56783  Biso   1.000  H
  H2       1.0000 0.55783  0.45687  0.58489  Biso   1.000  H
  H3       1.0000 0.70623  0.39811  0.73199  Biso   1.000  H
  H4       1.0000 0.65520  0.47841  0.71609  Biso   1.000  H
  C4       1.0000 0.65503  0.42682  0.82302  Biso   1.000  C
  C5       1.0000 0.65677  0.43131  0.50541  Biso   1.000  C
  C6       1.0000 0.72401  0.34080  0.61381  Biso   1.000  C
  H5       1.0000 0.64707  0.37372  0.83830  Biso   1.000  H
  H6       1.0000 0.60137  0.45629  0.82381  Biso   1.000  H
  C7       1.0000 0.73206  0.45600  0.88403  Biso   1.000  C
  C8       1.0000 0.72326  0.41673  0.47063  Biso   1.000  C
  H7       1.0000 0.61121  0.46919  0.48182  Biso   1.000  H
  C9       1.0000 0.78957  0.32190  0.57431  Biso   1.000  C
  H8       1.0000 0.72874  0.31921  0.66370  Biso   1.000  H
  H9       1.0000 0.77745  0.41322  0.89730  Biso   1.000  H
  H10      1.0000 0.71296  0.46119  0.93001  Biso   1.000  H
  C10      1.0000 0.78005  0.51301  0.88672  Biso   1.000  C
  O2       1.0000 0.72705  0.45250  0.40723  Biso   1.000  O
  C11      1.0000 0.79377  0.35749  0.50774  Biso   1.000  C
  O3       1.0000 0.86052  0.26261  0.63013  Biso   1.000  O
  H11      1.0000 0.80576  0.50298  0.84503  Biso   1.000  H
  H12      1.0000 0.73241  0.55340  0.86349  Biso   1.000  H
  C12      1.0000 0.85809  0.55801  0.95012  Biso   1.000  C
  C13      1.0000 0.65789  0.49702  0.36309  Biso   1.000  C
  H13      1.0000 0.83951  0.34471  0.48652  Biso   1.000  H
  C14      1.0000 0.91002  0.24592  0.59363  Biso   1.000  C
  H14      1.0000 0.83297  0.57219  0.99151  Biso   1.000  H
  H15      1.0000 0.90674  0.51920  0.97543  Biso   1.000  H
  C15      1.0000 0.91405  0.63469  0.93740  Biso   1.000  C
  H16      1.0000 0.63778  0.48028  0.30648  Biso   1.000  H
  H17      1.0000 0.60511  0.48979  0.38070  Biso   1.000  H
  C16      1.0000 0.68322  0.58818  0.36773  Biso   1.000  C
  H18      1.0000 0.87630  0.21849  0.54301  Biso   1.000  H
  H19      1.0000 0.94295  0.29062  0.58324  Biso   1.000  H
  C17      1.0000 0.98275  0.18569  0.66804  Biso   1.000  C
  O4       1.0000 0.95034  0.61911  0.89063  Biso   1.000  O
  H20      1.0000 0.96098  0.65050  0.98931  Biso   1.000  H
  H21      1.0000 0.86983  0.67752  0.91649  Biso   1.000  H
  O5       1.0000 0.74743  0.61817  0.37990  Biso   1.000  O
  H22      1.0000 0.65895  0.60901  0.40741  Biso   1.000  H
  H23      1.0000 0.64210  0.60872  0.31528  Biso   1.000  H
  H24      1.0000 0.94823  0.15832  0.69653  Biso   1.000  H
  O6       1.0000 0.04996  0.24031  0.72153  Biso   1.000  O
  H25      1.0000 0.01373  0.14788  0.64529  Biso   1.000  H
  C18      1.0000 0.98317  0.69170  0.86263  Biso   1.000  C
  C19      1.0000 0.74131  0.70180  0.38669  Biso   1.000  C
  C20      1.0000 0.11208  0.21639  0.78854  Biso   1.000  C
  H26      1.0000 0.93033  0.72409  0.83054  Biso   1.000  H
  C21      1.0000 0.03506  0.65972  0.81134  Biso   1.000  C
  H27      1.0000 0.02466  0.72170  0.90855  Biso   1.000  H
  H28      1.0000 0.70030  0.70979  0.41719  Biso   1.000  H
  H29      1.0000 0.70584  0.71960  0.33160  Biso   1.000  H
  C22      1.0000 0.79551  0.74241  0.41053  Biso   1.000  C
  H30      1.0000 0.07989  0.19701  0.82314  Biso   1.000  H
  H31      1.0000 0.14515  0.17262  0.77631  Biso   1.000  H
  C23      1.0000 0.18222  0.27398  0.83531  Biso   1.000  C
  C24      1.0000 0.01855  0.69269  0.74030  Biso   1.000  C
  C25      1.0000 0.09336  0.59460  0.83573  Biso   1.000  C
  O7       1.0000 0.88380  0.72339  0.47491  Biso   1.000  O
  H32      1.0000 0.81083  0.76138  0.36492  Biso   1.000  H
  H33      1.0000 0.76915  0.78618  0.42979  Biso   1.000  H
  O8       1.0000 0.18074  0.33800  0.81213  Biso   1.000  O
  H34      1.0000 0.24387  0.25280  0.84252  Biso   1.000  H
  H35      1.0000 0.17888  0.27690  0.88923  Biso   1.000  H
  C26      1.0000 0.06228  0.66871  0.68974  Biso   1.000  C
  H36      1.0000 0.97563  0.73372  0.72404  Biso   1.000  H
  C27      1.0000 0.13579  0.57049  0.78193  Biso   1.000  C
  H37      1.0000 0.10328  0.56898  0.88470  Biso   1.000  H
  C28      1.0000 0.90834  0.76447  0.54723  Biso   1.000  C
  C29      1.0000 0.25588  0.38329  0.85322  Biso   1.000  C
  O9       1.0000 0.05354  0.69911  0.61674  Biso   1.000  O
  C30      1.0000 0.12228  0.60568  0.71303  Biso   1.000  C
  O10      1.0000 0.19885  0.49749  0.79263  Biso   1.000  O
  H38      1.0000 0.88085  0.81618  0.53500  Biso   1.000  H
  H39      1.0000 0.87997  0.73880  0.58171  Biso   1.000  H
  C31      1.0000 0.00436  0.77253  0.59174  Biso   1.000  C
  H40      1.0000 0.29186  0.36099  0.90622  Biso   1.000  H
  H41      1.0000 0.29695  0.38930  0.82253  Biso   1.000  H
  C32      1.0000 0.20983  0.46773  0.86331  Biso   1.000  C
  H42      1.0000 0.15313  0.58829  0.67929  Biso   1.000  H
  H43      1.0000 0.03276  0.80083  0.55872  Biso   1.000  H
  H44      1.0000 0.01295  0.80357  0.64004  Biso   1.000  H
  H45      1.0000 0.25275  0.49819  0.90794  Biso   1.000  H
  H46      1.0000 0.15023  0.46143  0.87070  Biso   1.000  H
  C33      1.0000 0.31683  0.41182  0.63233  Biso   1.000  C
  O11      1.0000 0.25267  0.38183  0.62011  Biso   1.000  O
  C34      1.0000 0.34214  0.50298  0.63692  Biso   1.000  C
  H47      1.0000 0.34114  0.39099  0.59259  Biso   1.000  H
  H48      1.0000 0.35793  0.39128  0.68473  Biso   1.000  H
  C35      1.0000 0.25871  0.29820  0.61332  Biso   1.000  C
  O12      1.0000 0.27307  0.54750  0.59284  Biso   1.000  O
  H49      1.0000 0.36225  0.51972  0.69353  Biso   1.000  H
  H50      1.0000 0.39491  0.51021  0.61931  Biso   1.000  H
  C36      1.0000 0.20454  0.25759  0.58954  Biso   1.000  C
  H51      1.0000 0.29973  0.29021  0.58281  Biso   1.000  H
  H52      1.0000 0.29425  0.28040  0.66840  Biso   1.000  H
  C37      1.0000 0.27685  0.58327  0.52944  Biso   1.000  C
  O13      1.0000 0.11622  0.27661  0.52510  Biso   1.000  O
  H53      1.0000 0.18926  0.23862  0.63508  Biso   1.000  H
  H54      1.0000 0.23094  0.21382  0.57022  Biso   1.000  H
  C38      1.0000 0.34332  0.56869  0.49459  Biso   1.000  C
  C39      1.0000 0.20634  0.64251  0.49233  Biso   1.000  C
  C40      1.0000 0.09171  0.23553  0.45284  Biso   1.000  C
  C41      1.0000 0.34562  0.60720  0.42753  Biso   1.000  C
  H55      1.0000 0.38882  0.53081  0.51819  Biso   1.000  H
  C42      1.0000 0.21053  0.67810  0.42569  Biso   1.000  C
  H56      1.0000 0.16051  0.65529  0.51348  Biso   1.000  H
  C43      1.0000 0.99576  0.22747  0.40833  Biso   1.000  C
  H57      1.0000 0.11924  0.18382  0.46500  Biso   1.000  H
  H58      1.0000 0.12012  0.26120  0.41829  Biso   1.000  H
  C44      1.0000 0.42014  0.59588  0.39928  Biso   1.000  C
  C45      1.0000 0.27601  0.65920  0.38620  Biso   1.000  C
  O14      1.0000 0.13953  0.73739  0.36994  Biso   1.000  O
  O15      1.0000 0.94651  0.30089  0.38332  Biso   1.000  O
  H59      1.0000 0.96733  0.19917  0.44128  Biso   1.000  H
  H60      1.0000 0.98711  0.19643  0.36003  Biso   1.000  H
  O16      1.0000 0.41673  0.60387  0.32463  Biso   1.000  O
  H61      1.0000 0.47032  0.63008  0.43223  Biso   1.000  H
  H62      1.0000 0.44220  0.54313  0.41512  Biso   1.000  H
  H63      1.0000 0.27135  0.68079  0.33631  Biso   1.000  H
  C46      1.0000 0.09003  0.75408  0.40643  Biso   1.000  C
  C47      1.0000 0.93783  0.33129  0.31033  Biso   1.000  C
  C48      1.0000 0.35010  0.57522  0.26851  Biso   1.000  C
  C49      1.0000 0.01730  0.81431  0.33203  Biso   1.000  C
  H64      1.0000 0.12372  0.78151  0.45699  Biso   1.000  H
  H65      1.0000 0.05716  0.70938  0.41683  Biso   1.000  H
  C50      1.0000 0.98155  0.30731  0.25971  Biso   1.000  C
  C51      1.0000 0.87783  0.39432  0.28704  Biso   1.000  C
  C52      1.0000 0.34499  0.57318  0.17699  Biso   1.000  C
  H66      1.0000 0.29380  0.60189  0.26802  Biso   1.000  H
  H67      1.0000 0.34482  0.52159  0.28392  Biso   1.000  H
  O17      1.0000 0.95013  0.75969  0.27848  Biso   1.000  O
  H68      1.0000 0.05180  0.84168  0.30348  Biso   1.000  H
  H69      1.0000 0.98630  0.85212  0.35471  Biso   1.000  H
  C53      1.0000 0.96499  0.34028  0.18873  Biso   1.000  C
  H70      1.0000 0.02442  0.26628  0.27603  Biso   1.000  H
  C54      1.0000 0.86433  0.42951  0.21813  Biso   1.000  C
  H71      1.0000 0.84690  0.41171  0.32072  Biso   1.000  H
  C55      1.0000 0.26796  0.54400  0.11598  Biso   1.000  C
  H72      1.0000 0.35302  0.62628  0.16171  Biso   1.000  H
  H73      1.0000 0.39873  0.54371  0.17619  Biso   1.000  H
  C56      1.0000 0.88804  0.78361  0.21153  Biso   1.000  C
  C57      1.0000 0.01692  0.30830  0.13737  Biso   1.000  C
  C58      1.0000 0.90667  0.40540  0.16427  Biso   1.000  C
  O18      1.0000 0.80117  0.50251  0.20737  Biso   1.000  O
  C59      1.0000 0.21997  0.48699  0.11329  Biso   1.000  C
  H74      1.0000 0.22258  0.58678  0.10271  Biso   1.000  H
  H75      1.0000 0.28714  0.53881  0.07000  Biso   1.000  H
  C60      1.0000 0.81781  0.72602  0.16470  Biso   1.000  C
  H76      1.0000 0.92023  0.80299  0.17693  Biso   1.000  H
  H77      1.0000 0.85494  0.82738  0.22370  Biso   1.000  H
  O19      1.0000 0.04968  0.38089  0.10937  Biso   1.000  O
  H78      1.0000 0.06972  0.27591  0.16953  Biso   1.000  H
  H79      1.0000 0.97539  0.27830  0.09152  Biso   1.000  H
  H80      1.0000 0.89681  0.43102  0.11530  Biso   1.000  H
  C61      1.0000 0.79020  0.53227  0.13670  Biso   1.000  C
  C62      1.0000 0.14200  0.44199  0.04989  Biso   1.000  C
  H81      1.0000 0.19433  0.49702  0.15498  Biso   1.000  H
  H82      1.0000 0.26761  0.44660  0.13652  Biso   1.000  H
  O20      1.0000 0.81931  0.66200  0.18793  Biso   1.000  O
  H83      1.0000 0.75622  0.74720  0.15749  Biso   1.000  H
  H84      1.0000 0.82121  0.72310  0.11078  Biso   1.000  H
  C63      1.0000 0.08604  0.36531  0.06260  Biso   1.000  C
  C64      1.0000 0.74421  0.61671  0.14679  Biso   1.000  C
  H85      1.0000 0.74730  0.50181  0.09213  Biso   1.000  H
  H86      1.0000 0.84979  0.53857  0.12930  Biso   1.000  H
  H87      1.0000 0.16712  0.42781  0.00850  Biso   1.000  H
  H88      1.0000 0.09329  0.48080  0.02458  Biso   1.000  H
  H89      1.0000 0.03911  0.34950  0.01070  Biso   1.000  H
  H90      1.0000 0.13020  0.32248  0.08351  Biso   1.000  H
  H91      1.0000 0.70817  0.63901  0.09378  Biso   1.000  H
  H92      1.0000 0.70308  0.61070  0.17748  Biso   1.000  H
  C65      1.0000 0.38804  0.71639  0.71150  Biso   1.000  C
  O21      1.0000 0.45015  0.74031  0.77851  Biso   1.000  O
  H93      1.0000 0.42023  0.69701  0.67690  Biso   1.000  H
  H94      1.0000 0.35496  0.67262  0.72373  Biso   1.000  H
  C66      1.0000 0.31783  0.77398  0.66474  Biso   1.000  C
  C67      1.0000 0.51737  0.68569  0.83200  Biso   1.000  C
  O22      1.0000 0.31931  0.83800  0.68791  Biso   1.000  O
  H95      1.0000 0.25625  0.75280  0.65752  Biso   1.000  H
  H96      1.0000 0.32123  0.77690  0.61081  Biso   1.000  H
  C68      1.0000 0.59003  0.74592  0.90641  Biso   1.000  C
  H97      1.0000 0.48639  0.64788  0.85475  Biso   1.000  H
  H98      1.0000 0.55182  0.65832  0.80351  Biso   1.000  H
  C69      1.0000 0.24423  0.88329  0.64682  Biso   1.000  C
  O23      1.0000 0.63953  0.76261  0.86991  Biso   1.000  O
  H99      1.0000 0.62375  0.71849  0.95703  Biso   1.000  H
  H100     1.0000 0.55716  0.79062  0.91680  Biso   1.000  H
  H101     1.0000 0.20826  0.86099  0.59382  Biso   1.000  H
  H102     1.0000 0.20317  0.88930  0.67751  Biso   1.000  H
  C70      1.0000 0.29022  0.96773  0.63673  Biso   1.000  C
  C71      1.0000 0.71055  0.82190  0.92573  Biso   1.000  C
  O24      1.0000 0.30126  0.99749  0.70741  Biso   1.000  O
  H103     1.0000 0.24736  0.99819  0.59211  Biso   1.000  H
  H104     1.0000 0.34988  0.96143  0.62934  Biso   1.000  H
  C72      1.0000 0.70634  0.85749  0.99230  Biso   1.000  C
  C73      1.0000 0.77604  0.84080  0.88623  Biso   1.000  C
  C74      1.0000 0.36433  0.07049  0.71811  Biso   1.000  C
  H105     1.0000 0.66047  0.84471  0.01352  Biso   1.000  H
  C75      1.0000 0.77679  0.91673  0.02941  Biso   1.000  C
  C76      1.0000 0.84562  0.89280  0.92750  Biso   1.000  C
  H106     1.0000 0.77137  0.81921  0.83634  Biso   1.000  H
  C77      1.0000 0.37783  0.10568  0.78701  Biso   1.000  C
  C78      1.0000 0.40676  0.09460  0.66431  Biso   1.000  C
  C79      1.0000 0.84335  0.93131  0.99463  Biso   1.000  C
  O25      1.0000 0.77300  0.95250  0.09281  Biso   1.000  O
  C80      1.0000 0.92016  0.90412  0.89932  Biso   1.000  C
  H107     1.0000 0.34696  0.08829  0.82069  Biso   1.000  H
  C81      1.0000 0.43783  0.16871  0.81030  Biso   1.000  C
  C82      1.0000 0.46506  0.15972  0.68870  Biso   1.000  C
  H108     1.0000 0.39684  0.06898  0.61534  Biso   1.000  H
  H109     1.0000 0.88878  0.96919  0.01823  Biso   1.000  H
  C83      1.0000 0.84210  0.99702  0.13695  Biso   1.000  C
  O26      1.0000 0.91673  0.89613  0.82461  Biso   1.000  O
  H110     1.0000 0.97038  0.86992  0.93221  Biso   1.000  H
  H111     1.0000 0.94227  0.95687  0.91509  Biso   1.000  H
  O27      1.0000 0.44658  0.19911  0.88330  Biso   1.000  O
  C84      1.0000 0.48157  0.19269  0.75974  Biso   1.000  C
  C85      1.0000 0.51695  0.19170  0.63741  Biso   1.000  C
  H112     1.0000 0.86218  0.98028  0.19350  Biso   1.000  H
  H113     1.0000 0.89494  0.98979  0.11934  Biso   1.000  H
  C86      1.0000 0.81677  0.08818  0.13231  Biso   1.000  C
  C87      1.0000 0.85013  0.92478  0.76854  Biso   1.000  C
  C88      1.0000 0.49576  0.27253  0.90830  Biso   1.000  C
  H114     1.0000 0.52442  0.23372  0.77600  Biso   1.000  H
  O28      1.0000 0.54971  0.11911  0.60941  Biso   1.000  O
  H115     1.0000 0.56972  0.22409  0.66950  Biso   1.000  H
  H116     1.0000 0.47545  0.22170  0.59149  Biso   1.000  H
  O29      1.0000 0.75263  0.11817  0.12014  Biso   1.000  O
  H117     1.0000 0.84110  0.10901  0.09263  Biso   1.000  H
  H118     1.0000 0.85793  0.10872  0.18470  Biso   1.000  H
  H119     1.0000 0.79386  0.89811  0.76799  Biso   1.000  H
  H120     1.0000 0.84482  0.97841  0.78389  Biso   1.000  H
  C89      1.0000 0.84502  0.92682  0.67702  Biso   1.000  C
  C90      1.0000 0.59178  0.26447  0.95281  Biso   1.000  C
  H121     1.0000 0.46735  0.30083  0.94132  Biso   1.000  H
  H122     1.0000 0.48717  0.30357  0.86000  Biso   1.000  H
  C91      1.0000 0.58606  0.13469  0.56264  Biso   1.000  C
  C92      1.0000 0.75874  0.20180  0.11335  Biso   1.000  C
  H123     1.0000 0.85305  0.87372  0.66174  Biso   1.000  H
  H124     1.0000 0.89875  0.95629  0.67623  Biso   1.000  H
  C93      1.0000 0.76806  0.95600  0.61601  Biso   1.000  C
  H125     1.0000 0.61927  0.31618  0.96504  Biso   1.000  H
  H126     1.0000 0.62015  0.23880  0.91833  Biso   1.000  H
  O30      1.0000 0.61618  0.22339  0.02513  Biso   1.000  O
  C94      1.0000 0.64203  0.05801  0.54992  Biso   1.000  C
  H127     1.0000 0.53914  0.15050  0.51073  Biso   1.000  H
  H128     1.0000 0.63020  0.17752  0.58349  Biso   1.000  H
  H129     1.0000 0.79969  0.20979  0.08285  Biso   1.000  H
  H130     1.0000 0.79421  0.21960  0.16844  Biso   1.000  H
  C95      1.0000 0.70448  0.24241  0.08951  Biso   1.000  C
  H131     1.0000 0.72267  0.91322  0.60274  Biso   1.000  H
  H132     1.0000 0.78716  0.96119  0.57004  Biso   1.000  H
  C96      1.0000 0.72007  0.01301  0.61332  Biso   1.000  C
  H133     1.0000 0.66714  0.07219  0.50853  Biso   1.000  H
  H134     1.0000 0.59331  0.01920  0.52461  Biso   1.000  H
  H135     1.0000 0.68922  0.26138  0.13512  Biso   1.000  H
  H136     1.0000 0.73090  0.28618  0.07025  Biso   1.000  H
  H137     1.0000 0.69436  0.00298  0.65501  Biso   1.000  H
  H138     1.0000 0.76761  0.05340  0.63649  Biso   1.000  H
  C97      1.0000 0.61199  0.28361  0.28850  Biso   1.000  C
  O31      1.0000 0.54994  0.25969  0.22150  Biso   1.000  O
  H139     1.0000 0.57980  0.30299  0.32311  Biso   1.000  H
  H140     1.0000 0.64515  0.32738  0.27634  Biso   1.000  H
  C98      1.0000 0.68222  0.22602  0.33533  Biso   1.000  C
  C99      1.0000 0.48272  0.31431  0.16800  Biso   1.000  C
  O32      1.0000 0.68071  0.16200  0.31210  Biso   1.000  O
  H141     1.0000 0.74385  0.24720  0.34249  Biso   1.000  H
  H142     1.0000 0.67879  0.22310  0.38919  Biso   1.000  H
  C100     1.0000 0.40999  0.25408  0.09360  Biso   1.000  C
  H143     1.0000 0.51373  0.35212  0.14532  Biso   1.000  H
  H144     1.0000 0.44820  0.34168  0.19649  Biso   1.000  H
  C101     1.0000 0.75579  0.11671  0.35318  Biso   1.000  C
  O33      1.0000 0.36050  0.23739  0.13010  Biso   1.000  O
  H145     1.0000 0.37628  0.28151  0.04298  Biso   1.000  H
  H146     1.0000 0.44293  0.20938  0.08321  Biso   1.000  H
  H147     1.0000 0.79183  0.13901  0.40619  Biso   1.000  H
  H148     1.0000 0.79692  0.11070  0.32249  Biso   1.000  H
  C102     1.0000 0.70983  0.03227  0.36333  Biso   1.000  C
  C103     1.0000 0.28947  0.17810  0.07428  Biso   1.000  C
  O34      1.0000 0.69883  0.00251  0.29260  Biso   1.000  O
  H149     1.0000 0.75273  0.00181  0.40790  Biso   1.000  H
  H150     1.0000 0.65023  0.03857  0.37073  Biso   1.000  H
  C104     1.0000 0.22399  0.15920  0.11377  Biso   1.000  C
  C105     1.0000 0.29368  0.14251  0.00770  Biso   1.000  C
  C106     1.0000 0.63570  0.92951  0.28190  Biso   1.000  C
  C107     1.0000 0.15441  0.10720  0.07251  Biso   1.000  C
  H151     1.0000 0.22874  0.18079  0.16372  Biso   1.000  H
  H152     1.0000 0.33955  0.15529  0.98649  Biso   1.000  H
  C108     1.0000 0.22324  0.08327  0.97059  Biso   1.000  C
  C109     1.0000 0.62219  0.89432  0.21300  Biso   1.000  C
  C110     1.0000 0.59333  0.90540  0.33570  Biso   1.000  C
  C111     1.0000 0.15668  0.06869  0.00538  Biso   1.000  C
  C112     1.0000 0.07993  0.09588  0.10069  Biso   1.000  C
  O35      1.0000 0.22709  0.04750  0.90720  Biso   1.000  O
  H153     1.0000 0.65313  0.91171  0.17931  Biso   1.000  H
  C113     1.0000 0.56219  0.83129  0.18971  Biso   1.000  C
  C114     1.0000 0.53503  0.84028  0.31131  Biso   1.000  C
  H154     1.0000 0.60321  0.93102  0.38473  Biso   1.000  H
  H155     1.0000 0.11125  0.03081  0.98178  Biso   1.000  H
  O36      1.0000 0.08330  0.10387  0.17540  Biso   1.000  O
  H156     1.0000 0.02971  0.13008  0.06780  Biso   1.000  H
  H157     1.0000 0.05783  0.04313  0.08492  Biso   1.000  H
  C115     1.0000 0.15795  0.00298  0.86312  Biso   1.000  C
  O37      1.0000 0.55351  0.80089  0.11671  Biso   1.000  O
  C116     1.0000 0.51855  0.80731  0.24033  Biso   1.000  C
  C117     1.0000 0.48314  0.80830  0.36260  Biso   1.000  C
  C118     1.0000 0.14992  0.07522  0.23152  Biso   1.000  C
  C119     1.0000 0.18326  0.91182  0.86770  Biso   1.000  C
  H158     1.0000 0.13784  0.01972  0.80650  Biso   1.000  H
  H159     1.0000 0.10518  0.01021  0.88072  Biso   1.000  H
  C120     1.0000 0.50434  0.72747  0.09170  Biso   1.000  C
  H160     1.0000 0.47561  0.76628  0.22400  Biso   1.000  H
  O38      1.0000 0.45032  0.88089  0.39060  Biso   1.000  O
  H161     1.0000 0.43030  0.77591  0.33050  Biso   1.000  H
  H162     1.0000 0.52464  0.77830  0.40851  Biso   1.000  H
  H163     1.0000 0.20623  0.10189  0.23201  Biso   1.000  H
  H164     1.0000 0.15521  0.02159  0.21612  Biso   1.000  H
  C121     1.0000 0.15501  0.07318  0.32298  Biso   1.000  C
  O39      1.0000 0.24747  0.88183  0.87987  Biso   1.000  O
  H165     1.0000 0.15892  0.89099  0.90738  Biso   1.000  H
  H166     1.0000 0.14216  0.89128  0.81531  Biso   1.000  H
  C122     1.0000 0.40832  0.73553  0.04720  Biso   1.000  C
  H167     1.0000 0.53267  0.69917  0.05869  Biso   1.000  H
  H168     1.0000 0.51292  0.69643  0.14000  Biso   1.000  H
  C123     1.0000 0.41406  0.86531  0.43743  Biso   1.000  C
  H169     1.0000 0.14701  0.12628  0.33833  Biso   1.000  H
  H170     1.0000 0.10134  0.04371  0.32378  Biso   1.000  H
  C124     1.0000 0.23204  0.04400  0.38400  Biso   1.000  C
  C125     1.0000 0.24138  0.79820  0.88671  Biso   1.000  C
  O40      1.0000 0.38384  0.77661  0.97487  Biso   1.000  O
  H171     1.0000 0.38079  0.68382  0.03503  Biso   1.000  H
  H172     1.0000 0.37988  0.76120  0.08168  Biso   1.000  H
  C126     1.0000 0.35800  0.94199  0.45009  Biso   1.000  C
  H173     1.0000 0.46091  0.84950  0.48934  Biso   1.000  H
  H174     1.0000 0.36983  0.82248  0.41652  Biso   1.000  H
  H175     1.0000 0.27745  0.08678  0.39732  Biso   1.000  H
  H176     1.0000 0.21296  0.03881  0.43003  Biso   1.000  H
  C127     1.0000 0.28003  0.98699  0.38669  Biso   1.000  C
  H177     1.0000 0.20036  0.79021  0.91722  Biso   1.000  H
  H178     1.0000 0.20581  0.78040  0.83157  Biso   1.000  H
  C128     1.0000 0.29555  0.75759  0.91050  Biso   1.000  C
  H179     1.0000 0.33297  0.92781  0.49154  Biso   1.000  H
  H180     1.0000 0.40671  0.98080  0.47540  Biso   1.000  H
  H181     1.0000 0.30573  0.99702  0.34499  Biso   1.000  H
  H182     1.0000 0.23241  0.94660  0.36352  Biso   1.000  H
  H183     1.0000 0.31087  0.73862  0.86489  Biso   1.000  H
  H184     1.0000 0.26915  0.71382  0.92982  Biso   1.000  H
  Ne1      1.0000 0.39665  0.00395  0.17028  Biso   1.000  Ne
  He1      1.0000 0.42674  0.05146  0.23317  Biso   1.000  He
  He2      1.0000 0.33544  0.96149  0.18209  Biso   1.000  He
  He3      1.0000 0.41545  0.97456  0.07952  Biso   1.000  He
  Ar1      1.0000 0.38387  0.98947  0.17085  Biso   1.000  Ar
  Ne2      1.0000 0.10339  0.50395  0.32973  Biso   1.000  Ne
  He4      1.0000 0.08514  0.47459  0.41956  Biso   1.000  He
  He5      1.0000 0.15871  0.46528  0.32028  Biso   1.000  He
  He6      1.0000 0.07946  0.54221  0.27590  Biso   1.000  He
  Ar2      1.0000 0.11616  0.48948  0.32916  Biso   1.000  Ar
  Ne3      1.0000 0.89667  0.49605  0.67030  Biso   1.000  Ne
  He7      1.0000 0.99678  0.35657  0.92398  Biso   1.000  He
  He8      1.0000 0.83988  0.53583  0.68002  Biso   1.000  He
  He9      1.0000 0.91172  0.52478  0.58727  Biso   1.000  He
  Ar3      1.0000 0.88986  0.50827  0.67179  Biso   1.000  Ar
  Ne4      1.0000 0.60341  0.99605  0.82974  Biso   1.000  Ne
  He10     1.0000 0.62018  0.06011  0.93589  Biso   1.000  He
  He11     1.0000 0.65764  0.03393  0.82051  Biso   1.000  He
  He12     1.0000 0.57440  0.95016  0.76846  Biso   1.000  He
  Ar4      1.0000 0.61385  0.00896  0.82635  Biso   1.000  Ar
