data_image0
_cell_length_a       15.843
_cell_length_b       16.284
_cell_length_c       34.474
_cell_angle_alpha    90
_cell_angle_beta     91.31
_cell_angle_gamma    90

_symmetry_space_group_name_H-M    "P 1"
_symmetry_int_tables_number       1

loop_
  _symmetry_equiv_pos_as_xyz
  'x, y, z'

loop_
  _atom_site_label
  _atom_site_occupancy
  _atom_site_fract_x
  _atom_site_fract_y
  _atom_site_fract_z
  _atom_site_thermal_displace_type
  _atom_site_B_iso_or_equiv
  _atom_site_type_symbol
  C1       1.0000 0.42010  0.27198  0.15685  Biso   1.000  C
  N1       1.0000 0.35713  0.20603  0.16362  Biso   1.000  N
  H1       1.0000 0.42881  0.30398  0.18100  Biso   1.000  H
  C2       1.0000 0.39199  0.32879  0.12474  Biso   1.000  C
  H2       1.0000 0.47468  0.24668  0.15021  Biso   1.000  H
  C3       1.0000 0.32161  0.16519  0.13364  Biso   1.000  C
  C4       1.0000 0.33838  0.18662  0.20035  Biso   1.000  C
  C5       1.0000 0.32100  0.37730  0.12772  Biso   1.000  C
  C6       1.0000 0.44103  0.33370  0.09172  Biso   1.000  C
  C7       1.0000 0.44097  0.33370  0.09175  Biso   1.000  C
  C8       1.0000 0.26850  0.10329  0.13936  Biso   1.000  C
  H3       1.0000 0.33460  0.18079  0.10791  Biso   1.000  H
  H4       1.0000 0.36328  0.21610  0.22141  Biso   1.000  H
  C9       1.0000 0.28348  0.12417  0.20708  Biso   1.000  C
  C10      1.0000 0.29811  0.43061  0.09761  Biso   1.000  C
  H5       1.0000 0.28773  0.37429  0.15030  Biso   1.000  H
  H6       1.0000 0.48960  0.29993  0.08971  Biso   1.000  H
  C11      1.0000 0.41946  0.38768  0.06160  Biso   1.000  C
  C12      1.0000 0.24808  0.08002  0.17670  Biso   1.000  C
  H7       1.0000 0.24438  0.07492  0.11771  Biso   1.000  H
  H8       1.0000 0.26943  0.11091  0.23299  Biso   1.000  H
  C13      1.0000 0.34760  0.43583  0.06482  Biso   1.000  C
  H9       1.0000 0.24878  0.46340  0.09941  Biso   1.000  H
  C14      1.0000 0.47346  0.39051  0.02666  Biso   1.000  C
  C15      1.0000 0.19091  0.01142  0.18355  Biso   1.000  C
  H10      1.0000 0.33214  0.47249  0.04451  Biso   1.000  H
  H11      1.0000 0.33208  0.47249  0.04451  Biso   1.000  H
  C16      1.0000 0.55978  0.40862  0.03255  Biso   1.000  C
  C17      1.0000 0.43532  0.37092  0.99092  Biso   1.000  C
  C18      1.0000 0.12830  0.98950  0.15694  Biso   1.000  C
  C19      1.0000 0.20235  0.96297  0.21680  Biso   1.000  C
  C20      1.0000 0.20229  0.96297  0.21680  Biso   1.000  C
  C21      1.0000 0.59621  0.43503  0.06943  Biso   1.000  C
  N2       1.0000 0.62157  0.40058  0.00572  Biso   1.000  N
  N3       1.0000 0.47549  0.36889  0.95590  Biso   1.000  N
  C22      1.0000 0.34950  0.34721  0.98366  Biso   1.000  C
  C23      1.0000 0.07665  0.92262  0.16277  Biso   1.000  C
  C24      1.0000 0.07658  0.92262  0.16277  Biso   1.000  C
  H12      1.0000 0.12066  0.02137  0.13411  Biso   1.000  H
  H13      1.0000 0.24532  0.97599  0.23540  Biso   1.000  H
  C25      1.0000 0.15061  0.89659  0.22214  Biso   1.000  C
  H14      1.0000 0.56649  0.44651  0.09241  Biso   1.000  H
  C26      1.0000 0.68062  0.44013  0.06482  Biso   1.000  C
  C27      1.0000 0.69619  0.41777  0.02501  Biso   1.000  C
  H15      1.0000 0.53639  0.36600  0.95189  Biso   1.000  H
  C28      1.0000 0.41853  0.34598  0.92738  Biso   1.000  C
  H16      1.0000 0.30708  0.34181  0.00261  Biso   1.000  H
  C29      1.0000 0.33895  0.33382  0.94534  Biso   1.000  C
  C30      1.0000 0.33888  0.33382  0.94536  Biso   1.000  C
  N4       1.0000 0.08912  0.87767  0.19524  Biso   1.000  N
  H17      1.0000 0.03344  0.90850  0.14441  Biso   1.000  H
  H18      1.0000 0.03338  0.90850  0.14441  Biso   1.000  H
  H19      1.0000 0.15760  0.86361  0.24471  Biso   1.000  H
  H20      1.0000 0.72159  0.45542  0.08400  Biso   1.000  H
  C31      1.0000 0.77741  0.41268  0.00949  Biso   1.000  C
  C32      1.0000 0.43584  0.33419  0.88844  Biso   1.000  C
  C33      1.0000 0.43578  0.33419  0.88844  Biso   1.000  C
  H21      1.0000 0.28762  0.31878  0.93251  Biso   1.000  H
  C34      1.0000 0.03862  0.80171  0.20038  Biso   1.000  C
  C35      1.0000 0.79493  0.39309  0.97099  Biso   1.000  C
  C36      1.0000 0.85217  0.42637  0.03540  Biso   1.000  C
  C37      1.0000 0.36261  0.31602  0.86157  Biso   1.000  C
  C38      1.0000 0.51677  0.33653  0.87213  Biso   1.000  C
  H22      1.0000 0.99492  0.79692  0.17949  Biso   1.000  H
  H23      1.0000 0.99492  0.79692  0.17952  Biso   1.000  H
  H24      1.0000 0.98803  0.80558  0.18311  Biso   1.000  H
  C39      1.0000 0.09983  0.73059  0.19861  Biso   1.000  C
  H25      1.0000 0.01028  0.80251  0.22571  Biso   1.000  H
  C40      1.0000 0.08003  0.71997  0.19280  Biso   1.000  C
  H26      1.0000 0.01863  0.80109  0.22739  Biso   1.000  H
  C41      1.0000 0.87664  0.39290  0.95378  Biso   1.000  C
  N5       1.0000 0.73688  0.37472  0.94212  Biso   1.000  N
  C42      1.0000 0.87657  0.39290  0.95378  Biso   1.000  C
  C43      1.0000 0.86761  0.50258  0.05275  Biso   1.000  C
  C44      1.0000 0.90982  0.36269  0.04219  Biso   1.000  C
  N6       1.0000 0.59133  0.35041  0.89137  Biso   1.000  N
  C45      1.0000 0.53191  0.32197  0.83125  Biso   1.000  C
  C46      1.0000 0.35588  0.23962  0.84422  Biso   1.000  C
  C47      1.0000 0.30340  0.37571  0.85246  Biso   1.000  C
  C48      1.0000 0.14612  0.71672  0.16611  Biso   1.000  C
  C49      1.0000 0.10720  0.67612  0.22881  Biso   1.000  C
  C50      1.0000 0.15297  0.72900  0.16431  Biso   1.000  C
  C51      1.0000 0.06419  0.65101  0.21320  Biso   1.000  C
  C52      1.0000 0.77790  0.36582  0.90765  Biso   1.000  C
  H27      1.0000 0.67591  0.36398  0.94600  Biso   1.000  H
  H28      1.0000 0.92893  0.40260  0.96701  Biso   1.000  H
  C53      1.0000 0.86621  0.37638  0.91539  Biso   1.000  C
  H29      1.0000 0.82959  0.54710  0.04851  Biso   1.000  H
  C54      1.0000 0.93897  0.51240  0.07616  Biso   1.000  C
  H30      1.0000 0.90001  0.31098  0.03020  Biso   1.000  H
  C55      1.0000 0.98017  0.37270  0.06583  Biso   1.000  C
  C56      1.0000 0.65271  0.34500  0.86401  Biso   1.000  C
  C57      1.0000 0.61568  0.32639  0.82655  Biso   1.000  C
  H31      1.0000 0.49028  0.31147  0.81161  Biso   1.000  H
  H32      1.0000 0.39639  0.19817  0.85020  Biso   1.000  H
  C58      1.0000 0.29014  0.22323  0.81808  Biso   1.000  C
  C59      1.0000 0.29007  0.22323  0.81808  Biso   1.000  C
  H33      1.0000 0.30832  0.42858  0.86389  Biso   1.000  H
  C60      1.0000 0.23756  0.35937  0.82707  Biso   1.000  C
  H34      1.0000 0.13612  0.75068  0.14409  Biso   1.000  H
  C61      1.0000 0.20508  0.65709  0.16379  Biso   1.000  C
  C62      1.0000 0.19099  0.64198  0.15839  Biso   1.000  C
  H35      1.0000 0.17151  0.77837  0.15259  Biso   1.000  H
  H36      1.0000 0.07455  0.68300  0.25141  Biso   1.000  H
  C63      1.0000 0.16223  0.61158  0.22620  Biso   1.000  C
  H37      1.0000 0.07449  0.68300  0.25141  Biso   1.000  H
  C64      1.0000 0.10908  0.57738  0.20821  Biso   1.000  C
  H38      1.0000 0.02074  0.65242  0.23160  Biso   1.000  H
  C65      1.0000 0.74049  0.35237  0.87138  Biso   1.000  C
  H39      1.0000 0.90979  0.37270  0.89700  Biso   1.000  H
  H40      1.0000 0.95009  0.56411  0.08792  Biso   1.000  H
  C66      1.0000 0.99496  0.44749  0.08275  Biso   1.000  C
  C67      1.0000 0.04040  0.30171  0.07231  Biso   1.000  C
  H41      1.0000 0.64481  0.31878  0.80299  Biso   1.000  H
  C68      1.0000 0.28552  0.13989  0.79890  Biso   1.000  C
  C69      1.0000 0.28546  0.13989  0.79890  Biso   1.000  C
  C70      1.0000 0.23077  0.28267  0.80972  Biso   1.000  C
  H42      1.0000 0.19682  0.40070  0.82130  Biso   1.000  H
  C71      1.0000 0.21232  0.60041  0.19379  Biso   1.000  C
  C72      1.0000 0.25957  0.64763  0.12862  Biso   1.000  C
  C73      1.0000 0.17191  0.57480  0.17960  Biso   1.000  C
  H43      1.0000 0.16649  0.57338  0.24700  Biso   1.000  H
  H44      1.0000 0.09773  0.53058  0.22371  Biso   1.000  H
  C74      1.0000 0.79498  0.34291  0.83621  Biso   1.000  C
  C75      1.0000 0.80914  0.35802  0.84161  Biso   1.000  C
  H45      1.0000 0.04350  0.45529  0.09912  Biso   1.000  H
  N7       1.0000 0.99460  0.23059  0.09073  Biso   1.000  N
  H46      1.0000 0.06344  0.28421  0.04709  Biso   1.000  H
  H47      1.0000 0.08814  0.31927  0.08940  Biso   1.000  H
  H48      1.0000 0.06338  0.28421  0.04709  Biso   1.000  H
  H49      1.0000 0.08808  0.31927  0.08940  Biso   1.000  H
  H50      1.0000 0.34320  0.11711  0.79739  Biso   1.000  H
  N8       1.0000 0.23126  0.08069  0.81970  Biso   1.000  N
  H51      1.0000 0.26316  0.14659  0.77200  Biso   1.000  H
  H52      1.0000 0.18520  0.27131  0.79211  Biso   1.000  H
  C76      1.0000 0.34742  0.65500  0.13599  Biso   1.000  C
  C77      1.0000 0.22217  0.63418  0.09235  Biso   1.000  C
  H53      1.0000 0.25011  0.55533  0.19231  Biso   1.000  H
  H54      1.0000 0.20097  0.52469  0.17511  Biso   1.000  H
  C78      1.0000 0.85401  0.28328  0.83389  Biso   1.000  C
  C79      1.0000 0.78781  0.39959  0.80621  Biso   1.000  C
  C80      1.0000 0.84709  0.27100  0.83569  Biso   1.000  C
  C81      1.0000 0.82822  0.42520  0.82040  Biso   1.000  C
  C82      1.0000 0.94807  0.24650  0.12085  Biso   1.000  C
  C83      1.0000 0.00408  0.15770  0.07820  Biso   1.000  C
  C84      1.0000 0.16423  0.04808  0.80310  Biso   1.000  C
  C85      1.0000 0.25219  0.05981  0.85719  Biso   1.000  C
  C86      1.0000 0.16416  0.04808  0.80310  Biso   1.000  C
  C87      1.0000 0.20531  0.01308  0.79800  Biso   1.000  C
  C88      1.0000 0.20610  0.08389  0.85559  Biso   1.000  C
  N9       1.0000 0.26318  0.62528  0.05788  Biso   1.000  N
  C89      1.0000 0.13392  0.62362  0.08461  Biso   1.000  C
  N10      1.0000 0.40880  0.64959  0.10863  Biso   1.000  N
  C90      1.0000 0.38438  0.67361  0.17345  Biso   1.000  C
  H55      1.0000 0.86401  0.24932  0.85591  Biso   1.000  H
  C91      1.0000 0.90030  0.26941  0.80139  Biso   1.000  C
  H56      1.0000 0.82861  0.22163  0.84741  Biso   1.000  H
  C92      1.0000 0.92009  0.28003  0.80720  Biso   1.000  C
  C93      1.0000 0.83789  0.38842  0.77380  Biso   1.000  C
  H57      1.0000 0.75001  0.44467  0.80769  Biso   1.000  H
  C94      1.0000 0.89099  0.42262  0.79179  Biso   1.000  C
  H58      1.0000 0.79909  0.47531  0.82489  Biso   1.000  H
  H59      1.0000 0.94382  0.30079  0.13060  Biso   1.000  H
  C95      1.0000 0.90482  0.18171  0.13834  Biso   1.000  C
  C96      1.0000 0.96050  0.09261  0.09421  Biso   1.000  C
  H60      1.0000 0.04162  0.14781  0.05759  Biso   1.000  H
  C97      1.0000 0.11739  0.98938  0.82095  Biso   1.000  C
  C98      1.0000 0.16076  0.95020  0.81329  Biso   1.000  C
  H61      1.0000 0.14757  0.06577  0.77780  Biso   1.000  H
  H62      1.0000 0.29909  0.08542  0.86990  Biso   1.000  H
  C99      1.0000 0.20569  0.00178  0.87669  Biso   1.000  C
  C100     1.0000 0.16407  0.02198  0.87361  Biso   1.000  C
  H63      1.0000 0.21926  0.01069  0.77130  Biso   1.000  H
  H64      1.0000 0.21729  0.13252  0.87001  Biso   1.000  H
  C101     1.0000 0.20519  0.60691  0.02901  Biso   1.000  C
  H65      1.0000 0.32422  0.63602  0.05400  Biso   1.000  H
  C102     1.0000 0.12349  0.60710  0.04622  Biso   1.000  C
  H66      1.0000 0.09034  0.62730  0.10300  Biso   1.000  H
  H67      1.0000 0.09027  0.62730  0.10300  Biso   1.000  H
  C103     1.0000 0.48329  0.66347  0.12787  Biso   1.000  C
  H68      1.0000 0.35532  0.68122  0.19701  Biso   1.000  H
  C104     1.0000 0.46822  0.67803  0.16875  Biso   1.000  C
  C105     1.0000 0.96150  0.19829  0.79962  Biso   1.000  C
  C106     1.0000 0.89287  0.32388  0.77119  Biso   1.000  C
  C107     1.0000 0.93593  0.34899  0.78680  Biso   1.000  C
  H69      1.0000 0.83357  0.42662  0.75300  Biso   1.000  H
  H70      1.0000 0.90240  0.46942  0.77629  Biso   1.000  H
  C108     1.0000 0.90901  0.10440  0.12488  Biso   1.000  C
  H71      1.0000 0.87158  0.19270  0.16039  Biso   1.000  H
  H72      1.0000 0.96648  0.03918  0.08359  Biso   1.000  H
  C109     1.0000 0.13869  0.96272  0.85687  Biso   1.000  C
  H73      1.0000 0.06928  0.96702  0.80789  Biso   1.000  H
  H74      1.0000 0.14451  0.90291  0.79881  Biso   1.000  H
  H75      1.0000 0.21881  0.98870  0.90300  Biso   1.000  H
  H76      1.0000 0.15531  0.02622  0.90059  Biso   1.000  H
  C110     1.0000 0.22272  0.58732  0.99051  Biso   1.000  C
  H77      1.0000 0.07120  0.59740  0.03299  Biso   1.000  H
  C111     1.0000 0.56428  0.66581  0.11156  Biso   1.000  C
  H78      1.0000 0.50985  0.68853  0.18839  Biso   1.000  H
  H79      1.0000 0.50978  0.68853  0.18839  Biso   1.000  H
  H80      1.0000 0.92557  0.31700  0.74861  Biso   1.000  H
  N11      1.0000 0.91101  0.12233  0.80476  Biso   1.000  N
  H81      1.0000 0.98978  0.19749  0.77429  Biso   1.000  H
  H82      1.0000 0.98149  0.19891  0.77261  Biso   1.000  H
  H83      1.0000 0.00521  0.20308  0.82051  Biso   1.000  H
  H84      1.0000 0.01210  0.19442  0.81689  Biso   1.000  H
  H85      1.0000 0.97939  0.34758  0.76840  Biso   1.000  H
  C112     1.0000 0.86138  0.03728  0.14313  Biso   1.000  C
  C113     1.0000 0.09112  0.89560  0.87512  Biso   1.000  C
  C114     1.0000 0.30394  0.58223  0.97499  Biso   1.000  C
  C115     1.0000 0.14790  0.57363  0.96460  Biso   1.000  C
  C116     1.0000 0.30387  0.58223  0.97499  Biso   1.000  C
  C117     1.0000 0.58160  0.65402  0.07262  Biso   1.000  C
  C118     1.0000 0.63751  0.68398  0.13843  Biso   1.000  C
  C119     1.0000 0.92354  0.07738  0.83723  Biso   1.000  C
  C120     1.0000 0.84952  0.10341  0.77786  Biso   1.000  C
  C121     1.0000 0.92348  0.07738  0.83726  Biso   1.000  C
  C122     1.0000 0.84946  0.10341  0.77786  Biso   1.000  C
  C123     1.0000 0.88273  0.01062  0.17905  Biso   1.000  C
  C124     1.0000 0.79443  0.99822  0.12331  Biso   1.000  C
  C125     1.0000 0.79437  0.99822  0.12331  Biso   1.000  C
  C126     1.0000 0.83599  0.97802  0.12639  Biso   1.000  C
  C127     1.0000 0.83931  0.04980  0.18671  Biso   1.000  C
  C128     1.0000 0.09531  0.81829  0.86166  Biso   1.000  C
  C129     1.0000 0.03962  0.90739  0.90579  Biso   1.000  C
  C130     1.0000 0.31950  0.55987  0.93518  Biso   1.000  C
  N12      1.0000 0.37849  0.59942  0.99428  Biso   1.000  N
  C131     1.0000 0.13251  0.49742  0.94725  Biso   1.000  C
  C132     1.0000 0.09031  0.63731  0.95781  Biso   1.000  C
  C133     1.0000 0.66118  0.66618  0.05466  Biso   1.000  C
  N13      1.0000 0.52457  0.63111  0.04410  Biso   1.000  N
  C134     1.0000 0.69673  0.62429  0.14754  Biso   1.000  C
  C135     1.0000 0.64418  0.76038  0.15578  Biso   1.000  C
  H86      1.0000 0.96668  0.09150  0.85559  Biso   1.000  H
  C136     1.0000 0.87182  0.01050  0.84306  Biso   1.000  C
  H87      1.0000 0.84253  0.13639  0.75529  Biso   1.000  H
  C137     1.0000 0.79777  0.03703  0.78320  Biso   1.000  C
  H88      1.0000 0.84246  0.13639  0.75529  Biso   1.000  H
  C138     1.0000 0.83590  0.95192  0.19690  Biso   1.000  C
  C139     1.0000 0.79481  0.98692  0.20200  Biso   1.000  C
  H89      1.0000 0.93078  0.03298  0.19211  Biso   1.000  H
  H90      1.0000 0.78132  0.01130  0.09700  Biso   1.000  H
  C140     1.0000 0.74787  0.94019  0.14281  Biso   1.000  C
  C141     1.0000 0.79403  0.91611  0.14441  Biso   1.000  C
  H91      1.0000 0.84481  0.97378  0.09941  Biso   1.000  H
  H92      1.0000 0.85562  0.09709  0.20119  Biso   1.000  H
  C142     1.0000 0.05199  0.75350  0.87915  Biso   1.000  C
  H93      1.0000 0.12848  0.80730  0.83961  Biso   1.000  H
  C143     1.0000 0.99605  0.84230  0.92180  Biso   1.000  C
  C144     1.0000 0.99598  0.84230  0.92180  Biso   1.000  C
  H94      1.0000 0.03359  0.96082  0.91641  Biso   1.000  H
  C145     1.0000 0.44028  0.59138  0.96745  Biso   1.000  C
  C146     1.0000 0.40392  0.56497  0.93057  Biso   1.000  C
  H95      1.0000 0.27853  0.54458  0.91600  Biso   1.000  H
  H96      1.0000 0.27847  0.54458  0.91600  Biso   1.000  H
  H97      1.0000 0.17053  0.45290  0.95149  Biso   1.000  H
  H98      1.0000 0.17047  0.45290  0.95149  Biso   1.000  H
  C147     1.0000 0.06110  0.48760  0.92386  Biso   1.000  C
  C148     1.0000 0.01989  0.62730  0.93417  Biso   1.000  C
  H99      1.0000 0.10012  0.68902  0.96980  Biso   1.000  H
  H100     1.0000 0.46373  0.63400  0.04811  Biso   1.000  H
  C149     1.0000 0.56480  0.62908  0.00908  Biso   1.000  C
  H101     1.0000 0.46367  0.63400  0.04811  Biso   1.000  H
  H102     1.0000 0.71250  0.68122  0.06749  Biso   1.000  H
  C150     1.0000 0.65056  0.65279  0.01634  Biso   1.000  C
  H103     1.0000 0.60368  0.80183  0.14980  Biso   1.000  H
  C151     1.0000 0.70999  0.77677  0.18192  Biso   1.000  C
  C152     1.0000 0.76250  0.64063  0.17293  Biso   1.000  C
  H104     1.0000 0.69181  0.57142  0.13611  Biso   1.000  H
  H105     1.0000 0.87940  0.97863  0.86589  Biso   1.000  H
  C153     1.0000 0.80921  0.98858  0.81645  Biso   1.000  C
  H106     1.0000 0.75481  0.02401  0.76460  Biso   1.000  H
  N14      1.0000 0.76880  0.91931  0.18030  Biso   1.000  N
  H107     1.0000 0.85256  0.93423  0.22220  Biso   1.000  H
  H108     1.0000 0.85250  0.93423  0.22220  Biso   1.000  H
  H109     1.0000 0.78080  0.98931  0.22870  Biso   1.000  H
  H110     1.0000 0.70097  0.91458  0.13010  Biso   1.000  H
  H111     1.0000 0.78283  0.86748  0.12999  Biso   1.000  H
  N15      1.0000 0.00552  0.76941  0.90927  Biso   1.000  N
  H112     1.0000 0.05631  0.69921  0.86940  Biso   1.000  H
  H113     1.0000 0.95851  0.85219  0.94241  Biso   1.000  H
  C154     1.0000 0.52660  0.60949  0.97334  Biso   1.000  C
  H114     1.0000 0.43358  0.55349  0.90759  Biso   1.000  H
  H115     1.0000 0.05004  0.43589  0.91211  Biso   1.000  H
  C155     1.0000 0.00510  0.55251  0.91725  Biso   1.000  C
  H116     1.0000 0.04997  0.43589  0.91211  Biso   1.000  H
  C156     1.0000 0.95973  0.69829  0.92769  Biso   1.000  C
  C157     1.0000 0.95967  0.69829  0.92769  Biso   1.000  C
  H117     1.0000 0.69298  0.65819  0.99739  Biso   1.000  H
  C158     1.0000 0.76930  0.71733  0.19028  Biso   1.000  C
  C159     1.0000 0.71461  0.86011  0.20110  Biso   1.000  C
  H118     1.0000 0.80331  0.59930  0.17870  Biso   1.000  H
  C160     1.0000 0.75199  0.91998  0.82330  Biso   1.000  C
  C161     1.0000 0.58060  0.61232  0.93840  Biso   1.000  C
  H119     1.0000 0.95663  0.54471  0.90091  Biso   1.000  H
  H120     1.0000 0.95657  0.54471  0.90091  Biso   1.000  H
  H121     1.0000 0.93675  0.71579  0.95291  Biso   1.000  H
  H122     1.0000 0.91205  0.68073  0.91060  Biso   1.000  H
  H123     1.0000 0.93668  0.71579  0.95291  Biso   1.000  H
  H124     1.0000 0.91198  0.68073  0.91060  Biso   1.000  H
  H125     1.0000 0.81492  0.72869  0.20789  Biso   1.000  H
  H126     1.0000 0.73690  0.85341  0.22800  Biso   1.000  H
  H127     1.0000 0.65693  0.88289  0.20261  Biso   1.000  H
  C162     1.0000 0.73163  0.89671  0.86064  Biso   1.000  C
  C163     1.0000 0.71658  0.87583  0.79292  Biso   1.000  C
  C164     1.0000 0.73156  0.89671  0.86064  Biso   1.000  C
  C165     1.0000 0.65252  0.56417  0.93518  Biso   1.000  C
  C166     1.0000 0.55909  0.66630  0.90828  Biso   1.000  C
  H128     1.0000 0.75574  0.92508  0.88229  Biso   1.000  H
  C167     1.0000 0.67851  0.83481  0.86636  Biso   1.000  C
  H129     1.0000 0.75568  0.92508  0.88229  Biso   1.000  H
  C168     1.0000 0.66169  0.81338  0.79965  Biso   1.000  C
  H130     1.0000 0.73069  0.88909  0.76701  Biso   1.000  H
  C169     1.0000 0.70202  0.56939  0.90239  Biso   1.000  C
  H131     1.0000 0.66799  0.52751  0.95549  Biso   1.000  H
  C170     1.0000 0.60814  0.67121  0.87526  Biso   1.000  C
  C171     1.0000 0.60807  0.67121  0.87526  Biso   1.000  C
  H132     1.0000 0.51053  0.70007  0.91031  Biso   1.000  H
  N16      1.0000 0.64300  0.79397  0.83638  Biso   1.000  N
  H133     1.0000 0.66553  0.81921  0.89209  Biso   1.000  H
  H134     1.0000 0.63678  0.78390  0.77859  Biso   1.000  H
  H135     1.0000 0.75129  0.53660  0.90059  Biso   1.000  H
  C172     1.0000 0.67912  0.62270  0.87228  Biso   1.000  C
  C173     1.0000 0.58003  0.72802  0.84315  Biso   1.000  C
  C174     1.0000 0.57996  0.72802  0.84315  Biso   1.000  C
  H136     1.0000 0.71240  0.62571  0.84970  Biso   1.000  H
  H137     1.0000 0.52538  0.75332  0.84979  Biso   1.000  H
  H138     1.0000 0.57132  0.69602  0.81900  Biso   1.000  H
  C175     1.0000 0.53185  0.17803  0.33126  Biso   1.000  C
  C176     1.0000 0.51678  0.16347  0.37212  Biso   1.000  C
  C177     1.0000 0.61563  0.17361  0.32656  Biso   1.000  C
  H139     1.0000 0.49022  0.18853  0.31159  Biso   1.000  H
  C178     1.0000 0.43572  0.16581  0.38845  Biso   1.000  C
  N17      1.0000 0.59127  0.14959  0.39138  Biso   1.000  N
  C179     1.0000 0.65265  0.15500  0.36399  Biso   1.000  C
  H140     1.0000 0.64475  0.18122  0.30300  Biso   1.000  H
  C180     1.0000 0.36256  0.18398  0.36158  Biso   1.000  C
  C181     1.0000 0.41847  0.15402  0.42736  Biso   1.000  C
  C182     1.0000 0.74043  0.14763  0.37139  Biso   1.000  C
  C183     1.0000 0.35582  0.26038  0.34420  Biso   1.000  C
  C184     1.0000 0.30334  0.12429  0.35247  Biso   1.000  C
  N18      1.0000 0.47544  0.13111  0.45591  Biso   1.000  N
  C185     1.0000 0.33882  0.16618  0.44535  Biso   1.000  C
  C186     1.0000 0.77784  0.13418  0.40766  Biso   1.000  C
  C187     1.0000 0.79492  0.15709  0.33620  Biso   1.000  C
  C188     1.0000 0.80901  0.14198  0.34159  Biso   1.000  C
  C189     1.0000 0.29001  0.27677  0.31809  Biso   1.000  C
  H141     1.0000 0.39633  0.30183  0.35021  Biso   1.000  H
  C190     1.0000 0.23757  0.14063  0.32706  Biso   1.000  C
  H142     1.0000 0.30826  0.07142  0.36391  Biso   1.000  H
  H143     1.0000 0.53634  0.13400  0.45191  Biso   1.000  H
  C191     1.0000 0.43527  0.12908  0.49093  Biso   1.000  C
  H144     1.0000 0.28756  0.18122  0.43250  Biso   1.000  H
  C192     1.0000 0.34944  0.15279  0.48365  Biso   1.000  C
  N19      1.0000 0.73688  0.12528  0.44213  Biso   1.000  N
  C193     1.0000 0.86615  0.12362  0.41538  Biso   1.000  C
  C194     1.0000 0.85395  0.21672  0.33390  Biso   1.000  C
  C195     1.0000 0.78775  0.10041  0.30619  Biso   1.000  C
  C196     1.0000 0.84704  0.22900  0.33570  Biso   1.000  C
  C197     1.0000 0.82816  0.07480  0.32041  Biso   1.000  C
  C198     1.0000 0.23071  0.21733  0.30973  Biso   1.000  C
  C199     1.0000 0.28546  0.36011  0.29891  Biso   1.000  C
  H145     1.0000 0.19676  0.09930  0.32131  Biso   1.000  H
  C200     1.0000 0.47359  0.10949  0.52665  Biso   1.000  C
  H146     1.0000 0.30715  0.15819  0.50260  Biso   1.000  H
  C201     1.0000 0.79487  0.10691  0.47097  Biso   1.000  C
  H147     1.0000 0.67585  0.13602  0.44599  Biso   1.000  H
  C202     1.0000 0.87658  0.10710  0.45379  Biso   1.000  C
  H148     1.0000 0.90973  0.12730  0.39701  Biso   1.000  H
  H149     1.0000 0.86395  0.25068  0.35590  Biso   1.000  H
  C203     1.0000 0.90024  0.23059  0.30141  Biso   1.000  C
  H150     1.0000 0.82855  0.27837  0.34740  Biso   1.000  H
  C204     1.0000 0.92004  0.21997  0.30721  Biso   1.000  C
  C205     1.0000 0.83783  0.11158  0.27381  Biso   1.000  C
  H151     1.0000 0.74995  0.05533  0.30770  Biso   1.000  H
  C206     1.0000 0.89093  0.07738  0.29180  Biso   1.000  C
  H152     1.0000 0.79903  0.02469  0.32491  Biso   1.000  H
  H153     1.0000 0.18514  0.22869  0.29209  Biso   1.000  H
  N20      1.0000 0.23127  0.41931  0.31969  Biso   1.000  N
  H154     1.0000 0.26310  0.35341  0.27199  Biso   1.000  H
  H155     1.0000 0.34314  0.38289  0.29740  Biso   1.000  H
  C207     1.0000 0.55985  0.09138  0.53254  Biso   1.000  C
  C208     1.0000 0.41959  0.11232  0.56161  Biso   1.000  C
  C209     1.0000 0.77748  0.08732  0.50950  Biso   1.000  C
  H156     1.0000 0.92887  0.09740  0.46700  Biso   1.000  H
  C210     1.0000 0.89281  0.17612  0.27120  Biso   1.000  C
  C211     1.0000 0.96144  0.30171  0.29961  Biso   1.000  C
  C212     1.0000 0.93581  0.15101  0.28681  Biso   1.000  C
  H157     1.0000 0.83352  0.07338  0.25301  Biso   1.000  H
  H158     1.0000 0.90234  0.03058  0.27631  Biso   1.000  H
  C213     1.0000 0.16417  0.45192  0.30309  Biso   1.000  C
  C214     1.0000 0.25213  0.44019  0.35720  Biso   1.000  C
  C215     1.0000 0.20526  0.48692  0.29801  Biso   1.000  C
  C216     1.0000 0.20604  0.41611  0.35561  Biso   1.000  C
  N21      1.0000 0.62163  0.09942  0.50570  Biso   1.000  N
  C217     1.0000 0.59627  0.06497  0.56942  Biso   1.000  C
  C218     1.0000 0.34767  0.06417  0.56481  Biso   1.000  C
  C219     1.0000 0.44110  0.16630  0.59173  Biso   1.000  C
  C220     1.0000 0.69626  0.08223  0.52500  Biso   1.000  C
  C221     1.0000 0.85224  0.07363  0.53541  Biso   1.000  C
  H159     1.0000 0.92551  0.18300  0.24860  Biso   1.000  H
  N22      1.0000 0.91095  0.37767  0.30474  Biso   1.000  N
  H160     1.0000 0.98972  0.30251  0.27431  Biso   1.000  H
  H161     1.0000 0.98143  0.30109  0.27260  Biso   1.000  H
  H162     1.0000 0.00515  0.29692  0.32050  Biso   1.000  H
  H163     1.0000 0.01204  0.30558  0.31690  Biso   1.000  H
  H164     1.0000 0.97933  0.15242  0.26839  Biso   1.000  H
  C222     1.0000 0.11734  0.51062  0.32096  Biso   1.000  C
  H165     1.0000 0.14751  0.43423  0.27779  Biso   1.000  H
  C223     1.0000 0.16076  0.54980  0.31330  Biso   1.000  C
  H166     1.0000 0.29903  0.41458  0.36991  Biso   1.000  H
  C224     1.0000 0.20564  0.49822  0.37670  Biso   1.000  C
  C225     1.0000 0.16401  0.47802  0.37360  Biso   1.000  C
  H167     1.0000 0.21920  0.48931  0.27129  Biso   1.000  H
  H168     1.0000 0.21723  0.36748  0.37000  Biso   1.000  H
  H169     1.0000 0.56655  0.05349  0.59240  Biso   1.000  H
  C226     1.0000 0.68069  0.05987  0.56483  Biso   1.000  C
  H170     1.0000 0.33214  0.02751  0.54449  Biso   1.000  H
  C227     1.0000 0.29817  0.06939  0.59759  Biso   1.000  C
  C228     1.0000 0.39206  0.17121  0.62472  Biso   1.000  C
  H171     1.0000 0.48967  0.20007  0.58970  Biso   1.000  H
  C229     1.0000 0.90989  0.13731  0.54220  Biso   1.000  C
  C230     1.0000 0.86768  0.99742  0.55273  Biso   1.000  C
  C231     1.0000 0.92342  0.42262  0.33724  Biso   1.000  C
  C232     1.0000 0.84946  0.39659  0.27785  Biso   1.000  C
  C233     1.0000 0.13863  0.53728  0.35688  Biso   1.000  C
  H172     1.0000 0.06922  0.53298  0.30791  Biso   1.000  H
  H173     1.0000 0.14445  0.59709  0.29880  Biso   1.000  H
  H174     1.0000 0.21875  0.51130  0.40299  Biso   1.000  H
  H175     1.0000 0.15526  0.47378  0.40061  Biso   1.000  H
  H176     1.0000 0.72166  0.04458  0.58401  Biso   1.000  H
  H177     1.0000 0.24884  0.03660  0.59939  Biso   1.000  H
  C234     1.0000 0.32107  0.12270  0.62771  Biso   1.000  C
  C235     1.0000 0.42017  0.22802  0.65687  Biso   1.000  C
  C236     1.0000 0.98024  0.12730  0.56585  Biso   1.000  C
  H178     1.0000 0.90007  0.18902  0.53019  Biso   1.000  H
  H179     1.0000 0.82966  0.95290  0.54850  Biso   1.000  H
  C237     1.0000 0.93910  0.98760  0.57615  Biso   1.000  C
  H180     1.0000 0.96663  0.40850  0.35561  Biso   1.000  H
  C238     1.0000 0.87176  0.48950  0.34304  Biso   1.000  C
  C239     1.0000 0.79771  0.46297  0.28319  Biso   1.000  C
  H181     1.0000 0.84240  0.36361  0.25530  Biso   1.000  H
  C240     1.0000 0.09106  0.60440  0.37513  Biso   1.000  C
  H182     1.0000 0.28779  0.12571  0.65031  Biso   1.000  H
  N23      1.0000 0.35719  0.29397  0.66363  Biso   1.000  N
  H183     1.0000 0.47475  0.25332  0.65020  Biso   1.000  H
  H184     1.0000 0.42888  0.19602  0.68101  Biso   1.000  H
  C241     1.0000 0.99510  0.05251  0.58277  Biso   1.000  C
  C242     1.0000 0.04046  0.19829  0.57229  Biso   1.000  C
  H185     1.0000 0.95016  0.93589  0.58790  Biso   1.000  H
  H186     1.0000 0.87934  0.52137  0.36591  Biso   1.000  H
  C243     1.0000 0.80915  0.51142  0.31644  Biso   1.000  C
  H187     1.0000 0.75475  0.47599  0.26459  Biso   1.000  H
  C244     1.0000 0.09525  0.68171  0.36164  Biso   1.000  C
  C245     1.0000 0.03957  0.59261  0.40580  Biso   1.000  C
  C246     1.0000 0.32168  0.33481  0.63363  Biso   1.000  C
  C247     1.0000 0.33851  0.31338  0.70033  Biso   1.000  C
  H188     1.0000 0.04356  0.04471  0.59910  Biso   1.000  H
  N24      1.0000 0.99467  0.26941  0.59074  Biso   1.000  N
  H189     1.0000 0.06345  0.21579  0.54711  Biso   1.000  H
  H190     1.0000 0.08815  0.18073  0.58941  Biso   1.000  H
  C248     1.0000 0.75193  0.58002  0.32331  Biso   1.000  C
  C249     1.0000 0.05194  0.74650  0.37917  Biso   1.000  C
  H191     1.0000 0.12843  0.69270  0.33959  Biso   1.000  H
  H192     1.0000 0.03353  0.53918  0.41639  Biso   1.000  H
  C250     1.0000 0.99592  0.65770  0.42179  Biso   1.000  C
  C251     1.0000 0.26857  0.39671  0.63934  Biso   1.000  C
  H193     1.0000 0.33467  0.31921  0.60789  Biso   1.000  H
  H194     1.0000 0.36341  0.28390  0.72140  Biso   1.000  H
  C252     1.0000 0.28361  0.37583  0.70709  Biso   1.000  C
  C253     1.0000 0.94820  0.25350  0.62083  Biso   1.000  C
  C254     1.0000 0.00415  0.34230  0.57821  Biso   1.000  C
  C255     1.0000 0.73157  0.60329  0.36066  Biso   1.000  C
  C256     1.0000 0.71652  0.62417  0.29291  Biso   1.000  C
  N25      1.0000 0.00546  0.73059  0.40926  Biso   1.000  N
  H195     1.0000 0.05625  0.80079  0.36939  Biso   1.000  H
  H196     1.0000 0.95845  0.64781  0.44239  Biso   1.000  H
  C257     1.0000 0.24821  0.41998  0.67669  Biso   1.000  C
  H197     1.0000 0.24445  0.42508  0.61770  Biso   1.000  H
  H198     1.0000 0.26950  0.38909  0.73300  Biso   1.000  H
  H199     1.0000 0.94389  0.19921  0.63061  Biso   1.000  H
  C258     1.0000 0.90489  0.31829  0.63836  Biso   1.000  C
  C259     1.0000 0.96057  0.40739  0.59420  Biso   1.000  C
  H200     1.0000 0.04169  0.35219  0.55761  Biso   1.000  H
  H201     1.0000 0.75562  0.57492  0.38230  Biso   1.000  H
  C260     1.0000 0.67845  0.66519  0.36637  Biso   1.000  C
  C261     1.0000 0.66163  0.68662  0.29967  Biso   1.000  C
  H202     1.0000 0.73063  0.61091  0.26700  Biso   1.000  H
  C262     1.0000 0.95967  0.80171  0.42771  Biso   1.000  C
  C263     1.0000 0.19098  0.48858  0.68356  Biso   1.000  C
  H203     1.0000 0.87171  0.30730  0.66041  Biso   1.000  H
  C264     1.0000 0.90908  0.39560  0.62487  Biso   1.000  C
  H204     1.0000 0.96654  0.46082  0.58361  Biso   1.000  H
  N26      1.0000 0.64294  0.70603  0.33637  Biso   1.000  N
  H205     1.0000 0.66547  0.68079  0.39211  Biso   1.000  H
  H206     1.0000 0.63672  0.71610  0.27860  Biso   1.000  H
  C265     1.0000 0.01983  0.87270  0.43415  Biso   1.000  C
  H207     1.0000 0.93662  0.78421  0.45289  Biso   1.000  H
  H208     1.0000 0.91192  0.81927  0.41059  Biso   1.000  H
  C266     1.0000 0.12837  0.51050  0.65696  Biso   1.000  C
  C267     1.0000 0.20236  0.53703  0.71681  Biso   1.000  C
  C268     1.0000 0.86151  0.46272  0.64312  Biso   1.000  C
  C269     1.0000 0.57997  0.77198  0.34313  Biso   1.000  C
  C270     1.0000 0.00504  0.94749  0.41724  Biso   1.000  C
  C271     1.0000 0.09025  0.86269  0.45780  Biso   1.000  C
  C272     1.0000 0.07665  0.57738  0.66276  Biso   1.000  C
  H209     1.0000 0.12079  0.47863  0.63409  Biso   1.000  H
  H210     1.0000 0.24538  0.52401  0.73541  Biso   1.000  H
  C273     1.0000 0.15068  0.60341  0.72215  Biso   1.000  C
  C274     1.0000 0.88280  0.48938  0.67904  Biso   1.000  C
  C275     1.0000 0.79450  0.50178  0.62330  Biso   1.000  C
  C276     1.0000 0.83937  0.45020  0.68670  Biso   1.000  C
  C277     1.0000 0.83606  0.52198  0.62640  Biso   1.000  C
  H211     1.0000 0.52532  0.74668  0.34980  Biso   1.000  H
  H212     1.0000 0.57126  0.80398  0.31899  Biso   1.000  H
  C278     1.0000 0.60808  0.82879  0.37528  Biso   1.000  C
  H213     1.0000 0.95657  0.95529  0.40090  Biso   1.000  H
  C279     1.0000 0.06104  0.01240  0.42385  Biso   1.000  C
  C280     1.0000 0.14784  0.92637  0.46459  Biso   1.000  C
  H214     1.0000 0.10006  0.81098  0.46981  Biso   1.000  H
  N27      1.0000 0.08919  0.62233  0.69526  Biso   1.000  N
  H215     1.0000 0.03345  0.59150  0.64439  Biso   1.000  H
  H216     1.0000 0.15767  0.63639  0.74470  Biso   1.000  H
  H217     1.0000 0.93091  0.46702  0.69209  Biso   1.000  H
  C281     1.0000 0.83597  0.54808  0.69691  Biso   1.000  C
  C282     1.0000 0.79488  0.51308  0.70199  Biso   1.000  C
  C283     1.0000 0.74800  0.55981  0.64280  Biso   1.000  C
  H218     1.0000 0.78139  0.48870  0.59701  Biso   1.000  H
  C284     1.0000 0.79410  0.58389  0.64439  Biso   1.000  C
  H219     1.0000 0.84488  0.52622  0.59939  Biso   1.000  H
  H220     1.0000 0.85569  0.40291  0.70120  Biso   1.000  H
  C285     1.0000 0.55903  0.83370  0.40827  Biso   1.000  C
  C286     1.0000 0.67906  0.87730  0.37229  Biso   1.000  C
  C287     1.0000 0.13246  0.00258  0.44727  Biso   1.000  C
  H221     1.0000 0.04998  0.06411  0.41210  Biso   1.000  H
  C288     1.0000 0.22266  0.91268  0.49050  Biso   1.000  C
  C289     1.0000 0.03869  0.69829  0.70039  Biso   1.000  C
  N28      1.0000 0.76887  0.58069  0.68031  Biso   1.000  N
  H222     1.0000 0.85257  0.56577  0.72221  Biso   1.000  H
  H223     1.0000 0.78087  0.51069  0.72871  Biso   1.000  H
  H224     1.0000 0.70110  0.58542  0.63009  Biso   1.000  H
  H225     1.0000 0.78290  0.63252  0.63000  Biso   1.000  H
  C290     1.0000 0.58054  0.88768  0.43839  Biso   1.000  C
  H226     1.0000 0.51047  0.79993  0.41030  Biso   1.000  H
  C291     1.0000 0.70196  0.93061  0.40241  Biso   1.000  C
  H227     1.0000 0.71234  0.87429  0.34969  Biso   1.000  H
  H228     1.0000 0.17048  0.04710  0.45150  Biso   1.000  H
  C292     1.0000 0.20526  0.89309  0.52903  Biso   1.000  C
  C293     1.0000 0.30388  0.91777  0.47500  Biso   1.000  C
  C294     1.0000 0.09989  0.76941  0.69859  Biso   1.000  C
  H229     1.0000 0.01041  0.69749  0.72569  Biso   1.000  H
  C295     1.0000 0.08010  0.78003  0.69279  Biso   1.000  C
  H230     1.0000 0.01870  0.69891  0.72740  Biso   1.000  H
  H231     1.0000 0.99498  0.70308  0.67950  Biso   1.000  H
  H232     1.0000 0.98809  0.69442  0.68310  Biso   1.000  H
  C296     1.0000 0.71467  0.63989  0.70109  Biso   1.000  C
  C297     1.0000 0.52655  0.89051  0.47335  Biso   1.000  C
  C298     1.0000 0.65246  0.93583  0.43520  Biso   1.000  C
  H233     1.0000 0.75123  0.96340  0.40061  Biso   1.000  H
  N29      1.0000 0.26325  0.87472  0.55787  Biso   1.000  N
  C299     1.0000 0.12356  0.89290  0.54621  Biso   1.000  C
  N30      1.0000 0.37844  0.90058  0.49430  Biso   1.000  N
  C300     1.0000 0.31945  0.94013  0.43517  Biso   1.000  C
  C301     1.0000 0.14618  0.78328  0.66610  Biso   1.000  C
  C302     1.0000 0.15310  0.77100  0.66430  Biso   1.000  C
  C303     1.0000 0.10726  0.82388  0.72880  Biso   1.000  C
  C304     1.0000 0.06426  0.84899  0.71319  Biso   1.000  C
  H234     1.0000 0.73697  0.64659  0.72801  Biso   1.000  H
  H235     1.0000 0.65699  0.61711  0.70260  Biso   1.000  H
  C305     1.0000 0.71006  0.72323  0.68191  Biso   1.000  C
  C306     1.0000 0.44028  0.90862  0.46746  Biso   1.000  C
  C307     1.0000 0.56487  0.87092  0.50907  Biso   1.000  C
  H236     1.0000 0.66793  0.97249  0.45551  Biso   1.000  H
  C308     1.0000 0.22230  0.86582  0.59234  Biso   1.000  C
  H237     1.0000 0.32428  0.86398  0.55401  Biso   1.000  H
  H238     1.0000 0.07127  0.90260  0.53300  Biso   1.000  H
  C309     1.0000 0.13399  0.87638  0.58462  Biso   1.000  C
  C310     1.0000 0.40386  0.93503  0.43058  Biso   1.000  C
  H239     1.0000 0.27847  0.95542  0.41599  Biso   1.000  H
  C311     1.0000 0.20515  0.84291  0.66380  Biso   1.000  C
  C312     1.0000 0.19106  0.85802  0.65841  Biso   1.000  C
  H240     1.0000 0.13619  0.74932  0.64410  Biso   1.000  H
  H241     1.0000 0.17158  0.72163  0.65260  Biso   1.000  H
  C313     1.0000 0.16230  0.88842  0.72622  Biso   1.000  C
  C314     1.0000 0.10921  0.92262  0.70820  Biso   1.000  C
  H242     1.0000 0.07456  0.81700  0.75140  Biso   1.000  H
  H243     1.0000 0.02080  0.84758  0.73161  Biso   1.000  H
  C315     1.0000 0.64425  0.73962  0.65580  Biso   1.000  C
  C316     1.0000 0.76936  0.78267  0.69027  Biso   1.000  C
  N31      1.0000 0.52464  0.86889  0.54409  Biso   1.000  N
  C317     1.0000 0.65069  0.84721  0.51635  Biso   1.000  C
  C318     1.0000 0.25970  0.85237  0.62861  Biso   1.000  C
  H244     1.0000 0.09034  0.87270  0.60299  Biso   1.000  H
  H245     1.0000 0.43352  0.94651  0.40760  Biso   1.000  H
  C319     1.0000 0.21238  0.89959  0.69381  Biso   1.000  C
  C320     1.0000 0.17198  0.92520  0.67959  Biso   1.000  C
  H246     1.0000 0.16656  0.92662  0.74699  Biso   1.000  H
  H247     1.0000 0.09780  0.96942  0.72369  Biso   1.000  H
  C321     1.0000 0.63758  0.81602  0.63844  Biso   1.000  C
  H248     1.0000 0.60381  0.69817  0.64979  Biso   1.000  H
  C322     1.0000 0.76257  0.85937  0.67294  Biso   1.000  C
  H249     1.0000 0.81499  0.77131  0.70791  Biso   1.000  H
  H250     1.0000 0.46374  0.86600  0.54809  Biso   1.000  H
  C323     1.0000 0.58167  0.84598  0.57264  Biso   1.000  C
  C324     1.0000 0.66125  0.83382  0.55465  Biso   1.000  C
  H251     1.0000 0.69299  0.84181  0.49740  Biso   1.000  H
  C325     1.0000 0.34749  0.84500  0.63601  Biso   1.000  C
  H252     1.0000 0.25018  0.94467  0.69230  Biso   1.000  H
  H253     1.0000 0.20110  0.97531  0.67509  Biso   1.000  H
  C326     1.0000 0.56435  0.83419  0.61155  Biso   1.000  C
  C327     1.0000 0.69680  0.87571  0.64753  Biso   1.000  C
  H254     1.0000 0.80338  0.90070  0.67869  Biso   1.000  H
  H255     1.0000 0.71257  0.81878  0.56750  Biso   1.000  H
  N32      1.0000 0.40887  0.85041  0.60862  Biso   1.000  N
  C328     1.0000 0.38451  0.82639  0.67344  Biso   1.000  C
  C329     1.0000 0.48336  0.83653  0.62788  Biso   1.000  C
  H256     1.0000 0.69187  0.92858  0.63609  Biso   1.000  H
  H257     1.0000 0.35538  0.81878  0.69700  Biso   1.000  H
  C330     1.0000 0.46829  0.82197  0.66874  Biso   1.000  C
  H258     1.0000 0.50991  0.81147  0.68841  Biso   1.000  H
