data_image0
_cell_length_a       13.833
_cell_length_b       18.593
_cell_length_c       22.44
_cell_angle_alpha    90
_cell_angle_beta     98.96
_cell_angle_gamma    90

_symmetry_space_group_name_H-M    "P 1"
_symmetry_int_tables_number       1

loop_
  _symmetry_equiv_pos_as_xyz
  'x, y, z'

loop_
  _atom_site_label
  _atom_site_occupancy
  _atom_site_fract_x
  _atom_site_fract_y
  _atom_site_fract_z
  _atom_site_thermal_displace_type
  _atom_site_B_iso_or_equiv
  _atom_site_type_symbol
  C1       1.0000 0.55827  0.29855  0.58670  Biso   1.000  C
  N1       1.0000 0.56235  0.32168  0.52905  Biso   1.000  N
  N2       1.0000 0.56235  0.32173  0.52905  Biso   1.000  N
  N3       1.0000 0.65048  0.28801  0.61576  Biso   1.000  N
  O1       1.0000 0.48285  0.28898  0.60809  Biso   1.000  O
  N4       1.0000 0.65048  0.28796  0.61576  Biso   1.000  N
  C2       1.0000 0.47797  0.35201  0.48980  Biso   1.000  C
  C3       1.0000 0.66228  0.33706  0.51998  Biso   1.000  C
  C4       1.0000 0.72452  0.31119  0.58007  Biso   1.000  C
  C5       1.0000 0.67251  0.27559  0.68009  Biso   1.000  C
  C6       1.0000 0.67251  0.27564  0.68009  Biso   1.000  C
  N5       1.0000 0.45044  0.31082  0.43548  Biso   1.000  N
  N6       1.0000 0.45044  0.31076  0.43548  Biso   1.000  N
  H1       1.0000 0.49336  0.40128  0.47888  Biso   1.000  H
  H2       1.0000 0.42240  0.35406  0.51191  Biso   1.000  H
  N7       1.0000 0.69799  0.29441  0.47505  Biso   1.000  N
  N8       1.0000 0.69799  0.29436  0.47505  Biso   1.000  N
  H3       1.0000 0.67177  0.38907  0.51321  Biso   1.000  H
  N9       1.0000 0.78212  0.25413  0.56054  Biso   1.000  N
  H4       1.0000 0.76592  0.35024  0.60028  Biso   1.000  H
  N10      1.0000 0.70926  0.20459  0.69565  Biso   1.000  N
  H5       1.0000 0.61304  0.28328  0.69791  Biso   1.000  H
  H6       1.0000 0.72126  0.31087  0.69791  Biso   1.000  H
  C7       1.0000 0.35803  0.28140  0.42109  Biso   1.000  C
  C8       1.0000 0.49494  0.32292  0.38157  Biso   1.000  C
  C9       1.0000 0.67935  0.31227  0.41130  Biso   1.000  C
  C10      1.0000 0.67935  0.31232  0.41130  Biso   1.000  C
  C11      1.0000 0.77216  0.25009  0.49909  Biso   1.000  C
  C12      1.0000 0.86565  0.22304  0.59961  Biso   1.000  C
  C13      1.0000 0.81204  0.18620  0.69787  Biso   1.000  C
  C14      1.0000 0.81204  0.18615  0.69787  Biso   1.000  C
  C15      1.0000 0.66095  0.15630  0.72647  Biso   1.000  C
  N11      1.0000 0.34239  0.26289  0.36177  Biso   1.000  N
  O2       1.0000 0.29913  0.27333  0.45664  Biso   1.000  O
  C16      1.0000 0.42325  0.28355  0.33159  Biso   1.000  C
  N12      1.0000 0.58597  0.28586  0.38017  Biso   1.000  N
  H7       1.0000 0.50029  0.37476  0.37269  Biso   1.000  H
  H8       1.0000 0.68109  0.36471  0.40702  Biso   1.000  H
  H9       1.0000 0.73197  0.29215  0.39181  Biso   1.000  H
  O3       1.0000 0.82158  0.21218  0.47036  Biso   1.000  O
  O4       1.0000 0.82158  0.21223  0.47036  Biso   1.000  O
  H10      1.0000 0.91041  0.20217  0.57448  Biso   1.000  H
  N13      1.0000 0.83823  0.16813  0.63958  Biso   1.000  N
  H11      1.0000 0.90075  0.26155  0.62379  Biso   1.000  H
  H12      1.0000 0.85584  0.22342  0.71898  Biso   1.000  H
  H13      1.0000 0.85584  0.22336  0.71898  Biso   1.000  H
  C17      1.0000 0.82153  0.11375  0.73197  Biso   1.000  C
  N14      1.0000 0.72430  0.10160  0.74659  Biso   1.000  N
  O5       1.0000 0.57572  0.16151  0.73504  Biso   1.000  O
  O6       1.0000 0.57572  0.16146  0.73504  Biso   1.000  O
  C18      1.0000 0.24696  0.24391  0.32911  Biso   1.000  C
  C19      1.0000 0.24696  0.24386  0.32911  Biso   1.000  C
  N15      1.0000 0.48116  0.22417  0.31498  Biso   1.000  N
  H14      1.0000 0.40160  0.31560  0.29680  Biso   1.000  H
  C20      1.0000 0.57815  0.23019  0.34038  Biso   1.000  C
  C21      1.0000 0.57815  0.23014  0.34038  Biso   1.000  C
  C22      1.0000 0.86664  0.09751  0.63669  Biso   1.000  C
  N16      1.0000 0.85014  0.06341  0.68812  Biso   1.000  N
  H15      1.0000 0.87124  0.11628  0.76878  Biso   1.000  H
  C23      1.0000 0.70104  0.04599  0.78728  Biso   1.000  C
  C24      1.0000 0.70104  0.04604  0.78728  Biso   1.000  C
  N17      1.0000 0.24060  0.17028  0.30880  Biso   1.000  N
  H16      1.0000 0.23175  0.27570  0.29410  Biso   1.000  H
  H17      1.0000 0.19770  0.25214  0.35532  Biso   1.000  H
  H18      1.0000 0.23175  0.27564  0.29410  Biso   1.000  H
  C25      1.0000 0.45277  0.18588  0.25841  Biso   1.000  C
  O7       1.0000 0.64499  0.19228  0.32793  Biso   1.000  O
  O8       1.0000 0.89911  0.07008  0.59442  Biso   1.000  O
  O9       1.0000 0.89911  0.07013  0.59442  Biso   1.000  O
  C26      1.0000 0.89644  0.99500  0.70657  Biso   1.000  C
  H19      1.0000 0.75220  0.04491  0.82270  Biso   1.000  H
  N18      1.0000 0.69221  0.97488  0.76035  Biso   1.000  N
  H20      1.0000 0.63923  0.05825  0.80100  Biso   1.000  H
  C27      1.0000 0.27500  0.14678  0.25381  Biso   1.000  C
  C28      1.0000 0.17676  0.12198  0.32622  Biso   1.000  C
  N19      1.0000 0.37890  0.13091  0.26189  Biso   1.000  N
  H21      1.0000 0.51087  0.16318  0.24659  Biso   1.000  H
  H22      1.0000 0.42738  0.22046  0.22688  Biso   1.000  H
  H23      1.0000 0.93636  0.00059  0.74641  Biso   1.000  H
  N20      1.0000 0.82606  0.93783  0.70928  Biso   1.000  N
  H24      1.0000 0.94014  0.98139  0.67811  Biso   1.000  H
  N21      1.0000 0.82606  0.93777  0.70928  Biso   1.000  N
  C29      1.0000 0.77342  0.92680  0.75958  Biso   1.000  C
  C30      1.0000 0.60456  0.93879  0.75218  Biso   1.000  C
  C31      1.0000 0.22650  0.07320  0.24041  Biso   1.000  C
  H25      1.0000 0.25590  0.18098  0.22029  Biso   1.000  H
  N22      1.0000 0.17386  0.06217  0.29071  Biso   1.000  N
  O10      1.0000 0.13010  0.12989  0.36817  Biso   1.000  O
  C32      1.0000 0.39536  0.06115  0.24781  Biso   1.000  C
  C33      1.0000 0.82316  0.87802  0.67377  Biso   1.000  C
  C34      1.0000 0.82316  0.87796  0.67377  Biso   1.000  C
  H26      1.0000 0.81805  0.92691  0.79860  Biso   1.000  H
  H27      1.0000 0.81805  0.92685  0.79860  Biso   1.000  H
  C35      1.0000 0.72492  0.85317  0.74618  Biso   1.000  C
  N23      1.0000 0.62102  0.86909  0.73811  Biso   1.000  N
  O11      1.0000 0.52525  0.96558  0.75647  Biso   1.000  O
  N24      1.0000 0.30771  0.02512  0.23964  Biso   1.000  N
  H28      1.0000 0.18187  0.07309  0.20139  Biso   1.000  H
  N25      1.0000 0.30771  0.02506  0.23964  Biso   1.000  N
  H29      1.0000 0.18187  0.07315  0.20139  Biso   1.000  H
  C36      1.0000 0.10347  0.00500  0.29337  Biso   1.000  C
  C37      1.0000 0.10347  0.00495  0.29337  Biso   1.000  C
  O12      1.0000 0.47466  0.03442  0.24348  Biso   1.000  O
  O13      1.0000 0.47466  0.03437  0.24348  Biso   1.000  O
  N26      1.0000 0.75932  0.82967  0.69119  Biso   1.000  N
  O14      1.0000 0.86988  0.87006  0.63177  Biso   1.000  O
  H30      1.0000 0.74402  0.81896  0.77970  Biso   1.000  H
  C38      1.0000 0.54715  0.81407  0.74158  Biso   1.000  C
  C39      1.0000 0.29888  0.95401  0.21271  Biso   1.000  C
  C40      1.0000 0.29888  0.95396  0.21271  Biso   1.000  C
  N27      1.0000 0.14977  0.93659  0.31183  Biso   1.000  N
  H31      1.0000 0.06356  0.99941  0.25358  Biso   1.000  H
  H32      1.0000 0.06356  0.99935  0.25358  Biso   1.000  H
  H33      1.0000 0.05978  0.01861  0.32189  Biso   1.000  H
  H34      1.0000 0.05978  0.01856  0.32189  Biso   1.000  H
  C41      1.0000 0.75296  0.75609  0.67089  Biso   1.000  C
  N28      1.0000 0.51876  0.77578  0.68501  Biso   1.000  N
  H35      1.0000 0.48905  0.83682  0.75340  Biso   1.000  H
  H36      1.0000 0.57253  0.77949  0.77307  Biso   1.000  H
  H37      1.0000 0.48905  0.83677  0.75340  Biso   1.000  H
  N29      1.0000 0.27561  0.89840  0.25336  Biso   1.000  N
  H38      1.0000 0.24771  0.95509  0.17730  Biso   1.000  H
  H39      1.0000 0.36069  0.94175  0.19900  Biso   1.000  H
  C42      1.0000 0.13328  0.90249  0.36330  Biso   1.000  C
  C43      1.0000 0.17838  0.88619  0.26798  Biso   1.000  C
  N30      1.0000 0.65752  0.73711  0.63822  Biso   1.000  N
  H40      1.0000 0.76817  0.72430  0.70590  Biso   1.000  H
  H41      1.0000 0.80222  0.74786  0.64468  Biso   1.000  H
  C44      1.0000 0.42177  0.76981  0.65961  Biso   1.000  C
  C45      1.0000 0.57667  0.71640  0.66841  Biso   1.000  C
  C46      1.0000 0.33897  0.84365  0.27352  Biso   1.000  C
  O15      1.0000 0.10081  0.92992  0.40557  Biso   1.000  O
  O16      1.0000 0.10081  0.92987  0.40557  Biso   1.000  O
  N31      1.0000 0.16169  0.83187  0.36041  Biso   1.000  N
  C47      1.0000 0.18788  0.81380  0.30213  Biso   1.000  C
  H42      1.0000 0.12868  0.88367  0.23121  Biso   1.000  H
  C48      1.0000 0.64189  0.71860  0.57890  Biso   1.000  C
  N32      1.0000 0.41395  0.71409  0.61982  Biso   1.000  N
  O17      1.0000 0.35493  0.80767  0.67206  Biso   1.000  O
  C49      1.0000 0.50498  0.67708  0.61842  Biso   1.000  C
  H43      1.0000 0.59832  0.68440  0.70319  Biso   1.000  H
  O18      1.0000 0.42420  0.83849  0.26495  Biso   1.000  O
  N33      1.0000 0.29066  0.79541  0.30434  Biso   1.000  N
  N34      1.0000 0.29066  0.79535  0.30434  Biso   1.000  N
  C50      1.0000 0.13427  0.77691  0.40038  Biso   1.000  C
  H44      1.0000 0.14408  0.77658  0.28101  Biso   1.000  H
  N35      1.0000 0.54948  0.68918  0.56451  Biso   1.000  N
  O19      1.0000 0.70079  0.72667  0.54335  Biso   1.000  O
  C51      1.0000 0.32057  0.68773  0.58869  Biso   1.000  C
  C52      1.0000 0.32057  0.68768  0.58869  Biso   1.000  C
  H45      1.0000 0.49963  0.62524  0.62731  Biso   1.000  H
  H46      1.0000 0.49963  0.62518  0.62731  Biso   1.000  H
  C53      1.0000 0.32741  0.72441  0.31990  Biso   1.000  C
  C54      1.0000 0.32741  0.72436  0.31990  Biso   1.000  C
  H47      1.0000 0.09917  0.73840  0.37620  Biso   1.000  H
  N36      1.0000 0.21780  0.74587  0.43945  Biso   1.000  N
  H48      1.0000 0.08951  0.79777  0.42551  Biso   1.000  H
  C55      1.0000 0.52195  0.64799  0.51019  Biso   1.000  C
  N37      1.0000 0.30193  0.70559  0.52494  Biso   1.000  N
  H49      1.0000 0.26795  0.70779  0.60818  Biso   1.000  H
  H50      1.0000 0.31883  0.63529  0.59298  Biso   1.000  H
  N38      1.0000 0.34944  0.71199  0.38423  Biso   1.000  N
  H51      1.0000 0.38688  0.71667  0.30208  Biso   1.000  H
  H52      1.0000 0.27866  0.68908  0.30208  Biso   1.000  H
  C56      1.0000 0.22776  0.74991  0.50090  Biso   1.000  C
  C57      1.0000 0.27539  0.68881  0.41987  Biso   1.000  C
  N39      1.0000 0.43757  0.67832  0.47094  Biso   1.000  N
  N40      1.0000 0.43757  0.67827  0.47094  Biso   1.000  N
  H53      1.0000 0.57759  0.64589  0.48809  Biso   1.000  H
  H54      1.0000 0.50656  0.59867  0.52111  Biso   1.000  H
  C58      1.0000 0.33764  0.66288  0.48001  Biso   1.000  C
  C59      1.0000 0.44165  0.70139  0.41329  Biso   1.000  C
  O20      1.0000 0.17833  0.78782  0.52959  Biso   1.000  O
  O21      1.0000 0.17833  0.78777  0.52959  Biso   1.000  O
  H55      1.0000 0.23400  0.64976  0.39971  Biso   1.000  H
  H56      1.0000 0.32815  0.61093  0.48678  Biso   1.000  H
  H57      1.0000 0.32815  0.61088  0.48678  Biso   1.000  H
  O22      1.0000 0.51707  0.71097  0.39190  Biso   1.000  O
  C60      1.0000 0.45273  0.31410  0.75841  Biso   1.000  C
  N41      1.0000 0.48112  0.27580  0.81498  Biso   1.000  N
  N42      1.0000 0.37886  0.36906  0.76188  Biso   1.000  N
  H58      1.0000 0.51083  0.33679  0.74659  Biso   1.000  H
  H59      1.0000 0.42735  0.27951  0.72692  Biso   1.000  H
  H60      1.0000 0.42734  0.27951  0.72687  Biso   1.000  H
  C61      1.0000 0.57811  0.26978  0.84038  Biso   1.000  C
  C62      1.0000 0.42321  0.21637  0.83158  Biso   1.000  C
  C63      1.0000 0.39532  0.43877  0.74781  Biso   1.000  C
  C64      1.0000 0.27496  0.35320  0.75381  Biso   1.000  C
  O23      1.0000 0.64495  0.30770  0.82793  Biso   1.000  O
  N43      1.0000 0.58593  0.21411  0.88017  Biso   1.000  N
  N44      1.0000 0.58591  0.21411  0.88012  Biso   1.000  N
  N45      1.0000 0.34235  0.23708  0.86176  Biso   1.000  N
  H61      1.0000 0.40156  0.18437  0.79680  Biso   1.000  H
  C65      1.0000 0.49498  0.17711  0.88157  Biso   1.000  C
  O24      1.0000 0.47462  0.46561  0.74348  Biso   1.000  O
  N46      1.0000 0.30760  0.47491  0.73964  Biso   1.000  N
  N47      1.0000 0.30767  0.47491  0.73964  Biso   1.000  N
  C66      1.0000 0.22646  0.42677  0.74041  Biso   1.000  C
  N48      1.0000 0.24056  0.32969  0.80880  Biso   1.000  N
  H62      1.0000 0.25586  0.31899  0.72029  Biso   1.000  H
  C67      1.0000 0.67931  0.18771  0.91130  Biso   1.000  C
  C68      1.0000 0.24692  0.25612  0.82910  Biso   1.000  C
  C69      1.0000 0.35807  0.21858  0.92109  Biso   1.000  C
  N49      1.0000 0.45040  0.18921  0.93548  Biso   1.000  N
  H63      1.0000 0.50025  0.12521  0.87268  Biso   1.000  H
  C70      1.0000 0.29884  0.54601  0.71271  Biso   1.000  C
  N50      1.0000 0.17382  0.43780  0.79071  Biso   1.000  N
  H64      1.0000 0.18183  0.42688  0.70138  Biso   1.000  H
  C71      1.0000 0.17672  0.37799  0.82621  Biso   1.000  C
  C72      1.0000 0.17678  0.37799  0.82617  Biso   1.000  C
  H65      1.0000 0.73193  0.20782  0.89181  Biso   1.000  H
  H66      1.0000 0.68105  0.13532  0.90701  Biso   1.000  H
  N51      1.0000 0.69795  0.20562  0.97504  Biso   1.000  N
  H67      1.0000 0.68104  0.13532  0.90697  Biso   1.000  H
  H68      1.0000 0.19766  0.24789  0.85531  Biso   1.000  H
  H69      1.0000 0.23171  0.22428  0.79409  Biso   1.000  H
  H70      1.0000 0.19765  0.24789  0.85527  Biso   1.000  H
  H71      1.0000 0.23179  0.22428  0.79409  Biso   1.000  H
  O25      1.0000 0.29909  0.22670  0.95664  Biso   1.000  O
  O26      1.0000 0.29917  0.22670  0.95664  Biso   1.000  O
  C73      1.0000 0.47793  0.14801  0.98980  Biso   1.000  C
  H72      1.0000 0.36065  0.55817  0.69899  Biso   1.000  H
  N52      1.0000 0.27549  0.60157  0.75336  Biso   1.000  N
  N53      1.0000 0.27557  0.60157  0.75336  Biso   1.000  N
  H73      1.0000 0.24767  0.54488  0.67729  Biso   1.000  H
  C74      1.0000 0.10344  0.49497  0.79342  Biso   1.000  C
  C75      1.0000 0.10343  0.49497  0.79337  Biso   1.000  C
  O27      1.0000 0.13000  0.37009  0.86821  Biso   1.000  O
  O28      1.0000 0.13006  0.37009  0.86817  Biso   1.000  O
  C76      1.0000 0.77212  0.24988  0.99909  Biso   1.000  C
  C77      1.0000 0.66224  0.16291  0.01998  Biso   1.000  C
  C78      1.0000 0.66231  0.16291  0.01998  Biso   1.000  C
  H74      1.0000 0.49332  0.09869  0.97888  Biso   1.000  H
  N54      1.0000 0.56238  0.17829  0.02905  Biso   1.000  N
  H75      1.0000 0.42243  0.14592  0.01190  Biso   1.000  H
  C79      1.0000 0.33893  0.65627  0.77352  Biso   1.000  C
  C80      1.0000 0.17835  0.61378  0.76802  Biso   1.000  C
  C81      1.0000 0.17834  0.61378  0.76797  Biso   1.000  C
  N55      1.0000 0.14973  0.56338  0.81182  Biso   1.000  N
  H76      1.0000 0.06352  0.50056  0.75358  Biso   1.000  H
  H77      1.0000 0.05974  0.48136  0.82188  Biso   1.000  H
  O29      1.0000 0.82154  0.28780  0.97035  Biso   1.000  O
  N56      1.0000 0.78222  0.24590  0.06053  Biso   1.000  N
  H78      1.0000 0.67181  0.11090  0.01321  Biso   1.000  H
  H79      1.0000 0.67179  0.11090  0.01317  Biso   1.000  H
  C82      1.0000 0.72463  0.18878  0.08007  Biso   1.000  C
  C83      1.0000 0.55830  0.20142  0.08670  Biso   1.000  C
  N57      1.0000 0.29062  0.70457  0.80433  Biso   1.000  N
  O30      1.0000 0.42416  0.66149  0.76495  Biso   1.000  O
  H80      1.0000 0.12864  0.61631  0.73120  Biso   1.000  H
  C84      1.0000 0.18784  0.68617  0.80212  Biso   1.000  C
  C85      1.0000 0.18783  0.68617  0.80208  Biso   1.000  C
  C86      1.0000 0.13324  0.59748  0.86330  Biso   1.000  C
  C87      1.0000 0.86569  0.27688  0.09960  Biso   1.000  C
  N58      1.0000 0.65051  0.21202  0.11575  Biso   1.000  N
  H81      1.0000 0.76595  0.14979  0.10028  Biso   1.000  H
  H82      1.0000 0.76602  0.14979  0.10028  Biso   1.000  H
  O31      1.0000 0.48288  0.21099  0.10808  Biso   1.000  O
  C88      1.0000 0.32730  0.77556  0.81990  Biso   1.000  C
  C89      1.0000 0.32737  0.77556  0.81990  Biso   1.000  C
  N59      1.0000 0.16165  0.66810  0.86041  Biso   1.000  N
  H83      1.0000 0.14404  0.72339  0.78101  Biso   1.000  H
  O32      1.0000 0.10069  0.57011  0.90557  Biso   1.000  O
  O33      1.0000 0.10077  0.57011  0.90557  Biso   1.000  O
  N60      1.0000 0.83826  0.33190  0.13957  Biso   1.000  N
  H84      1.0000 0.90078  0.23837  0.12378  Biso   1.000  H
  H85      1.0000 0.91052  0.29780  0.07448  Biso   1.000  H
  C90      1.0000 0.67262  0.22439  0.18009  Biso   1.000  C
  N61      1.0000 0.34940  0.78798  0.88423  Biso   1.000  N
  H86      1.0000 0.38684  0.78331  0.80208  Biso   1.000  H
  H87      1.0000 0.27862  0.81090  0.80208  Biso   1.000  H
  C91      1.0000 0.13423  0.72307  0.90038  Biso   1.000  C
  C92      1.0000 0.81207  0.31377  0.19786  Biso   1.000  C
  C93      1.0000 0.86667  0.40246  0.13669  Biso   1.000  C
  N62      1.0000 0.70930  0.29538  0.19565  Biso   1.000  N
  H88      1.0000 0.61307  0.21669  0.19791  Biso   1.000  H
  H89      1.0000 0.72129  0.18910  0.19791  Biso   1.000  H
  H90      1.0000 0.61306  0.21669  0.19786  Biso   1.000  H
  H91      1.0000 0.72128  0.18910  0.19786  Biso   1.000  H
  C94      1.0000 0.44161  0.79858  0.91328  Biso   1.000  C
  C95      1.0000 0.27535  0.81117  0.91987  Biso   1.000  C
  H92      1.0000 0.09913  0.76158  0.87620  Biso   1.000  H
  N63      1.0000 0.21769  0.75410  0.93945  Biso   1.000  N
  H93      1.0000 0.08939  0.70220  0.92551  Biso   1.000  H
  N64      1.0000 0.21775  0.75410  0.93940  Biso   1.000  N
  H94      1.0000 0.08945  0.70220  0.92546  Biso   1.000  H
  H95      1.0000 0.85587  0.27661  0.21897  Biso   1.000  H
  C96      1.0000 0.82156  0.38617  0.23197  Biso   1.000  C
  N65      1.0000 0.85018  0.43656  0.18816  Biso   1.000  N
  O34      1.0000 0.89915  0.42989  0.09442  Biso   1.000  O
  N66      1.0000 0.85017  0.43656  0.18812  Biso   1.000  N
  O35      1.0000 0.89922  0.42989  0.09442  Biso   1.000  O
  C97      1.0000 0.66098  0.34368  0.22646  Biso   1.000  C
  O36      1.0000 0.51703  0.78895  0.89190  Biso   1.000  O
  N67      1.0000 0.43753  0.82165  0.97094  Biso   1.000  N
  H96      1.0000 0.23389  0.85016  0.89970  Biso   1.000  H
  C98      1.0000 0.33767  0.83709  0.98001  Biso   1.000  C
  H97      1.0000 0.23396  0.85016  0.89970  Biso   1.000  H
  C99      1.0000 0.22779  0.75007  0.00089  Biso   1.000  C
  N68      1.0000 0.72434  0.39838  0.24663  Biso   1.000  N
  H98      1.0000 0.87127  0.38369  0.26878  Biso   1.000  H
  N69      1.0000 0.72441  0.39838  0.24658  Biso   1.000  N
  C100     1.0000 0.89647  0.50497  0.20657  Biso   1.000  C
  O37      1.0000 0.57582  0.33851  0.23504  Biso   1.000  O
  C101     1.0000 0.52198  0.85199  0.01019  Biso   1.000  C
  H99      1.0000 0.32811  0.88910  0.98677  Biso   1.000  H
  N70      1.0000 0.30196  0.79438  0.02494  Biso   1.000  N
  N71      1.0000 0.30204  0.79438  0.02494  Biso   1.000  N
  O38      1.0000 0.17838  0.71220  0.02963  Biso   1.000  O
  O39      1.0000 0.17844  0.71220  0.02959  Biso   1.000  O
  C102     1.0000 0.70107  0.45399  0.28728  Biso   1.000  C
  N72      1.0000 0.82609  0.56220  0.20928  Biso   1.000  N
  H100     1.0000 0.93639  0.49938  0.24640  Biso   1.000  H
  H101     1.0000 0.94017  0.51858  0.17810  Biso   1.000  H
  H102     1.0000 0.57755  0.85408  0.98808  Biso   1.000  H
  N73      1.0000 0.54951  0.81079  0.06450  Biso   1.000  N
  H103     1.0000 0.50659  0.90125  0.02111  Biso   1.000  H
  C103     1.0000 0.32060  0.81229  0.08869  Biso   1.000  C
  H104     1.0000 0.63926  0.44178  0.30099  Biso   1.000  H
  N74      1.0000 0.69232  0.52509  0.26034  Biso   1.000  N
  H105     1.0000 0.75231  0.45506  0.32269  Biso   1.000  H
  C104     1.0000 0.77345  0.57317  0.25958  Biso   1.000  C
  C105     1.0000 0.82319  0.62201  0.17377  Biso   1.000  C
  C106     1.0000 0.64185  0.78137  0.07890  Biso   1.000  C
  C107     1.0000 0.50501  0.82289  0.11842  Biso   1.000  C
  C108     1.0000 0.64192  0.78137  0.07890  Biso   1.000  C
  N75      1.0000 0.41399  0.78589  0.11981  Biso   1.000  N
  H106     1.0000 0.26798  0.79218  0.10818  Biso   1.000  H
  H107     1.0000 0.31886  0.86468  0.09297  Biso   1.000  H
  C109     1.0000 0.60459  0.56118  0.25218  Biso   1.000  C
  H108     1.0000 0.81808  0.57307  0.29860  Biso   1.000  H
  C110     1.0000 0.72495  0.64680  0.24618  Biso   1.000  C
  O40      1.0000 0.86991  0.62986  0.13177  Biso   1.000  O
  N76      1.0000 0.75942  0.67031  0.19118  Biso   1.000  N
  C111     1.0000 0.57670  0.78357  0.16840  Biso   1.000  C
  H109     1.0000 0.49973  0.87479  0.12730  Biso   1.000  H
  O41      1.0000 0.70075  0.77330  0.04335  Biso   1.000  O
  N77      1.0000 0.65756  0.76287  0.13822  Biso   1.000  N
  O42      1.0000 0.70082  0.77330  0.04335  Biso   1.000  O
  C112     1.0000 0.42180  0.73017  0.15960  Biso   1.000  C
  O43      1.0000 0.52529  0.53439  0.25651  Biso   1.000  O
  N78      1.0000 0.62106  0.63088  0.23810  Biso   1.000  N
  O44      1.0000 0.52528  0.53439  0.25646  Biso   1.000  O
  H110     1.0000 0.74412  0.68096  0.27970  Biso   1.000  H
  C113     1.0000 0.75299  0.74388  0.17088  Biso   1.000  C
  N79      1.0000 0.51879  0.72420  0.18500  Biso   1.000  N
  H111     1.0000 0.59835  0.81558  0.20318  Biso   1.000  H
  H112     1.0000 0.59843  0.81558  0.20318  Biso   1.000  H
  O45      1.0000 0.35497  0.69230  0.17206  Biso   1.000  O
  C114     1.0000 0.54718  0.68590  0.24158  Biso   1.000  C
  H113     1.0000 0.80225  0.75206  0.14467  Biso   1.000  H
  H114     1.0000 0.76820  0.77567  0.20589  Biso   1.000  H
  H115     1.0000 0.48909  0.66321  0.25340  Biso   1.000  H
  H116     1.0000 0.57256  0.72049  0.27307  Biso   1.000  H
  Ne1      1.0000 0.50218  0.01094  0.49674  Biso   1.000  Ne
  He1      1.0000 0.32053  0.04671  0.57012  Biso   1.000  He
  He2      1.0000 0.68177  0.95271  0.42892  Biso   1.000  He
  Ar1      1.0000 0.50586  0.99992  0.49961  Biso   1.000  Ar
  Ne2      1.0000 0.48227  0.50454  0.99289  Biso   1.000  Ne
  He3      1.0000 0.32023  0.45326  0.07023  Biso   1.000  He
  He4      1.0000 0.67666  0.54600  0.93092  Biso   1.000  He
  Ar2      1.0000 0.50460  0.49811  0.00002  Biso   1.000  Ar
