data_image0
_cell_length_a       12.855
_cell_length_b       20.133
_cell_length_c       31.662
_cell_angle_alpha    90
_cell_angle_beta     92.59
_cell_angle_gamma    90

_symmetry_space_group_name_H-M    "P 1"
_symmetry_int_tables_number       1

loop_
  _symmetry_equiv_pos_as_xyz
  'x, y, z'

loop_
  _atom_site_label
  _atom_site_occupancy
  _atom_site_fract_x
  _atom_site_fract_y
  _atom_site_fract_z
  _atom_site_thermal_displace_type
  _atom_site_B_iso_or_equiv
  _atom_site_type_symbol
  C1       1.0000 0.66102  0.56137  0.56991  Biso   1.000  C
  N1       1.0000 0.76544  0.53509  0.56874  Biso   1.000  N
  N2       1.0000 0.65564  0.63230  0.57886  Biso   1.000  N
  H1       1.0000 0.61806  0.54930  0.54389  Biso   1.000  H
  C2       1.0000 0.61827  0.52958  0.61009  Biso   1.000  C
  C3       1.0000 0.83241  0.54219  0.53371  Biso   1.000  C
  C4       1.0000 0.79176  0.49680  0.60320  Biso   1.000  C
  C5       1.0000 0.66799  0.68266  0.54730  Biso   1.000  C
  C6       1.0000 0.60891  0.64531  0.61610  Biso   1.000  C
  N3       1.0000 0.70820  0.49426  0.62827  Biso   1.000  N
  N4       1.0000 0.58615  0.58571  0.63459  Biso   1.000  N
  H2       1.0000 0.55892  0.49878  0.60310  Biso   1.000  H
  N5       1.0000 0.88849  0.60498  0.53368  Biso   1.000  N
  H3       1.0000 0.88345  0.50529  0.53450  Biso   1.000  H
  H4       1.0000 0.78983  0.53827  0.50690  Biso   1.000  H
  O1       1.0000 0.87525  0.46729  0.60968  Biso   1.000  O
  N6       1.0000 0.77543  0.70119  0.54180  Biso   1.000  N
  H5       1.0000 0.63734  0.66647  0.51999  Biso   1.000  H
  H6       1.0000 0.62860  0.72269  0.55540  Biso   1.000  H
  O2       1.0000 0.58976  0.70089  0.62995  Biso   1.000  O
  C7       1.0000 0.70377  0.44931  0.66400  Biso   1.000  C
  C8       1.0000 0.52486  0.58128  0.67168  Biso   1.000  C
  C9       1.0000 0.99622  0.60801  0.53640  Biso   1.000  C
  C10      1.0000 0.84305  0.66538  0.51471  Biso   1.000  C
  C11      1.0000 0.81711  0.76029  0.55489  Biso   1.000  C
  N7       1.0000 0.71041  0.48140  0.70478  Biso   1.000  N
  H7       1.0000 0.76142  0.41688  0.66261  Biso   1.000  H
  H8       1.0000 0.63768  0.42408  0.66140  Biso   1.000  H
  N8       1.0000 0.58508  0.57130  0.71092  Biso   1.000  N
  H9       1.0000 0.47496  0.54408  0.66789  Biso   1.000  H
  H10      1.0000 0.48388  0.62271  0.67399  Biso   1.000  H
  O3       1.0000 0.05511  0.56281  0.54683  Biso   1.000  O
  N9       1.0000 0.02501  0.67139  0.52523  Biso   1.000  N
  C12      1.0000 0.93663  0.71246  0.51120  Biso   1.000  C
  H11      1.0000 0.80824  0.65619  0.48638  Biso   1.000  H
  N10      1.0000 0.91383  0.76670  0.53911  Biso   1.000  N
  O4       1.0000 0.77425  0.80167  0.57658  Biso   1.000  O
  C13      1.0000 0.79601  0.47449  0.73229  Biso   1.000  C
  C14      1.0000 0.62096  0.50738  0.72581  Biso   1.000  C
  C15      1.0000 0.60357  0.62028  0.74010  Biso   1.000  C
  C16      1.0000 0.13274  0.69006  0.51888  Biso   1.000  C
  H12      1.0000 0.94344  0.72816  0.48151  Biso   1.000  H
  C17      1.0000 0.96632  0.82998  0.53750  Biso   1.000  C
  O5       1.0000 0.88071  0.45050  0.72372  Biso   1.000  O
  N11      1.0000 0.77081  0.49878  0.77080  Biso   1.000  N
  H13      1.0000 0.56284  0.47430  0.72568  Biso   1.000  H
  C18      1.0000 0.66372  0.52148  0.77099  Biso   1.000  C
  N12      1.0000 0.65318  0.59340  0.77484  Biso   1.000  N
  O6       1.0000 0.57864  0.67908  0.73630  Biso   1.000  O
  N13      1.0000 0.17348  0.73660  0.55015  Biso   1.000  N
  H14      1.0000 0.13721  0.71018  0.49049  Biso   1.000  H
  H15      1.0000 0.17648  0.64968  0.51980  Biso   1.000  H
  H16      1.0000 0.98003  0.84006  0.50759  Biso   1.000  H
  H17      1.0000 0.91929  0.86480  0.54759  Biso   1.000  H
  N14      1.0000 0.06485  0.83316  0.56235  Biso   1.000  N
  C19      1.0000 0.83558  0.48850  0.80820  Biso   1.000  C
  H18      1.0000 0.62341  0.49749  0.79258  Biso   1.000  H
  C20      1.0000 0.66358  0.62827  0.81518  Biso   1.000  C
  C21      1.0000 0.25241  0.71986  0.57920  Biso   1.000  C
  C22      1.0000 0.16064  0.80798  0.54661  Biso   1.000  C
  C23      1.0000 0.07989  0.87518  0.59618  Biso   1.000  C
  N15      1.0000 0.88745  0.54751  0.82419  Biso   1.000  N
  H19      1.0000 0.79225  0.47017  0.83058  Biso   1.000  H
  H20      1.0000 0.88896  0.45468  0.80210  Biso   1.000  H
  N16      1.0000 0.77013  0.64278  0.82755  Biso   1.000  N
  H21      1.0000 0.63275  0.60090  0.83728  Biso   1.000  H
  H22      1.0000 0.62398  0.67049  0.81300  Biso   1.000  H
  O7       1.0000 0.28374  0.66408  0.58603  Biso   1.000  O
  N17      1.0000 0.28632  0.77669  0.59877  Biso   1.000  N
  C24      1.0000 0.24320  0.83619  0.57898  Biso   1.000  C
  H23      1.0000 0.17193  0.82407  0.51730  Biso   1.000  H
  N18      1.0000 0.18281  0.87667  0.60668  Biso   1.000  N
  O8       1.0000 0.01221  0.90727  0.61294  Biso   1.000  O
  C25      1.0000 0.99237  0.55327  0.82679  Biso   1.000  C
  C26      1.0000 0.83692  0.59559  0.85101  Biso   1.000  C
  C27      1.0000 0.81006  0.70591  0.82849  Biso   1.000  C
  C28      1.0000 0.37714  0.77818  0.62770  Biso   1.000  C
  H24      1.0000 0.29764  0.86266  0.56488  Biso   1.000  H
  C29      1.0000 0.23133  0.92480  0.63589  Biso   1.000  C
  O9       1.0000 0.05507  0.51468  0.81073  Biso   1.000  O
  N19      1.0000 0.01843  0.60761  0.85050  Biso   1.000  N
  H25      1.0000 0.80066  0.57398  0.87469  Biso   1.000  H
  C30      1.0000 0.93012  0.64029  0.86719  Biso   1.000  C
  N20      1.0000 0.90475  0.70486  0.84958  Biso   1.000  N
  O10      1.0000 0.76588  0.75528  0.81313  Biso   1.000  O
  N21      1.0000 0.35290  0.79387  0.67067  Biso   1.000  N
  H26      1.0000 0.42681  0.81160  0.61758  Biso   1.000  H
  H27      1.0000 0.41171  0.73427  0.62729  Biso   1.000  H
  N22      1.0000 0.25700  0.89818  0.67778  Biso   1.000  N
  H28      1.0000 0.18342  0.96290  0.63870  Biso   1.000  H
  H29      1.0000 0.29579  0.94159  0.62369  Biso   1.000  H
  C31      1.0000 0.12558  0.62206  0.86549  Biso   1.000  C
  H30      1.0000 0.93558  0.64178  0.89878  Biso   1.000  H
  C32      1.0000 0.95957  0.76506  0.86198  Biso   1.000  C
  C33      1.0000 0.34795  0.74718  0.70168  Biso   1.000  C
  C34      1.0000 0.35075  0.86078  0.68768  Biso   1.000  C
  C35      1.0000 0.19930  0.90836  0.71218  Biso   1.000  C
  N23      1.0000 0.17063  0.67849  0.84462  Biso   1.000  N
  H31      1.0000 0.16933  0.58248  0.86090  Biso   1.000  H
  H32      1.0000 0.12652  0.63081  0.89628  Biso   1.000  H
  H33      1.0000 0.97624  0.76367  0.89290  Biso   1.000  H
  H34      1.0000 0.91327  0.80356  0.85628  Biso   1.000  H
  N24      1.0000 0.05477  0.77440  0.84019  Biso   1.000  N
  O11      1.0000 0.34536  0.68648  0.69590  Biso   1.000  O
  N25      1.0000 0.34726  0.77847  0.74016  Biso   1.000  N
  C36      1.0000 0.34691  0.84950  0.73630  Biso   1.000  C
  H35      1.0000 0.41421  0.88626  0.68050  Biso   1.000  H
  N26      1.0000 0.24955  0.88020  0.74645  Biso   1.000  N
  O12      1.0000 0.11567  0.93876  0.71284  Biso   1.000  O
  C37      1.0000 0.23978  0.67208  0.81379  Biso   1.000  C
  C38      1.0000 0.15364  0.74738  0.85619  Biso   1.000  C
  C39      1.0000 0.06895  0.82839  0.81518  Biso   1.000  C
  C40      1.0000 0.36797  0.74400  0.77949  Biso   1.000  C
  H36      1.0000 0.40770  0.87026  0.75208  Biso   1.000  H
  C41      1.0000 0.21753  0.89237  0.78929  Biso   1.000  C
  N27      1.0000 0.27415  0.73397  0.80323  Biso   1.000  N
  O13      1.0000 0.26884  0.61888  0.79884  Biso   1.000  O
  C42      1.0000 0.23415  0.78498  0.83099  Biso   1.000  C
  H37      1.0000 0.16465  0.75458  0.88730  Biso   1.000  H
  N28      1.0000 0.17377  0.83579  0.80921  Biso   1.000  N
  O14      1.0000 0.99966  0.86559  0.80074  Biso   1.000  O
  H38      1.0000 0.39935  0.70019  0.77348  Biso   1.000  H
  H39      1.0000 0.41924  0.76968  0.79701  Biso   1.000  H
  H40      1.0000 0.16564  0.92877  0.78860  Biso   1.000  H
  H41      1.0000 0.27883  0.90766  0.80681  Biso   1.000  H
  H42      1.0000 0.29064  0.80440  0.84999  Biso   1.000  H
  C43      1.0000 0.33904  0.43858  0.43010  Biso   1.000  C
  C44      1.0000 0.38186  0.47037  0.38989  Biso   1.000  C
  N29      1.0000 0.34442  0.36770  0.42116  Biso   1.000  N
  N30      1.0000 0.23462  0.46491  0.43124  Biso   1.000  N
  H43      1.0000 0.38200  0.45070  0.45609  Biso   1.000  H
  N31      1.0000 0.41391  0.41429  0.36538  Biso   1.000  N
  N32      1.0000 0.29186  0.50569  0.37171  Biso   1.000  N
  H44      1.0000 0.44114  0.50117  0.39691  Biso   1.000  H
  C45      1.0000 0.39115  0.35469  0.38388  Biso   1.000  C
  C46      1.0000 0.33207  0.31729  0.45271  Biso   1.000  C
  C47      1.0000 0.20830  0.50320  0.39681  Biso   1.000  C
  C48      1.0000 0.16765  0.45781  0.46630  Biso   1.000  C
  C49      1.0000 0.47520  0.41867  0.32830  Biso   1.000  C
  C50      1.0000 0.29628  0.55069  0.33598  Biso   1.000  C
  O15      1.0000 0.41030  0.29911  0.37003  Biso   1.000  O
  N33      1.0000 0.22463  0.29881  0.45821  Biso   1.000  N
  H45      1.0000 0.36272  0.33348  0.47999  Biso   1.000  H
  H46      1.0000 0.37146  0.27731  0.44458  Biso   1.000  H
  O16      1.0000 0.12481  0.53271  0.39033  Biso   1.000  O
  N34      1.0000 0.11157  0.39497  0.46630  Biso   1.000  N
  H47      1.0000 0.11661  0.49471  0.46548  Biso   1.000  H
  H48      1.0000 0.21023  0.46168  0.49308  Biso   1.000  H
  N35      1.0000 0.41498  0.42870  0.28910  Biso   1.000  N
  H49      1.0000 0.52510  0.45587  0.33209  Biso   1.000  H
  H50      1.0000 0.51625  0.37729  0.32599  Biso   1.000  H
  N36      1.0000 0.28964  0.51860  0.29520  Biso   1.000  N
  H51      1.0000 0.23864  0.58307  0.33740  Biso   1.000  H
  H52      1.0000 0.36239  0.57587  0.33861  Biso   1.000  H
  C51      1.0000 0.15701  0.33458  0.48530  Biso   1.000  C
  C52      1.0000 0.18295  0.23971  0.44509  Biso   1.000  C
  C53      1.0000 0.00383  0.39199  0.46358  Biso   1.000  C
  C54      1.0000 0.39649  0.37968  0.25988  Biso   1.000  C
  C55      1.0000 0.37910  0.49257  0.27420  Biso   1.000  C
  C56      1.0000 0.20405  0.52551  0.26769  Biso   1.000  C
  C57      1.0000 0.06343  0.28749  0.48878  Biso   1.000  C
  H53      1.0000 0.19182  0.34381  0.51360  Biso   1.000  H
  O17      1.0000 0.22581  0.19828  0.42340  Biso   1.000  O
  N37      1.0000 0.08622  0.23330  0.46086  Biso   1.000  N
  O18      1.0000 0.94495  0.43719  0.45315  Biso   1.000  O
  N38      1.0000 0.97505  0.32861  0.47478  Biso   1.000  N
  N39      1.0000 0.34688  0.40660  0.22514  Biso   1.000  N
  O19      1.0000 0.42141  0.32092  0.26368  Biso   1.000  O
  C58      1.0000 0.33634  0.47847  0.22899  Biso   1.000  C
  H54      1.0000 0.43722  0.52570  0.27430  Biso   1.000  H
  N40      1.0000 0.22924  0.50117  0.22918  Biso   1.000  N
  O20      1.0000 0.11935  0.54950  0.27626  Biso   1.000  O
  H55      1.0000 0.05662  0.27179  0.51850  Biso   1.000  H
  C59      1.0000 0.03374  0.17002  0.46251  Biso   1.000  C
  C60      1.0000 0.86732  0.30989  0.48110  Biso   1.000  C
  C61      1.0000 0.33648  0.37168  0.18479  Biso   1.000  C
  H56      1.0000 0.37664  0.50251  0.20740  Biso   1.000  H
  C62      1.0000 0.16448  0.51150  0.19181  Biso   1.000  C
  N41      1.0000 0.93521  0.16679  0.43766  Biso   1.000  N
  H57      1.0000 0.02003  0.15989  0.49239  Biso   1.000  H
  H58      1.0000 0.08077  0.13520  0.45239  Biso   1.000  H
  N42      1.0000 0.82657  0.26340  0.44983  Biso   1.000  N
  H59      1.0000 0.86285  0.28977  0.50949  Biso   1.000  H
  H60      1.0000 0.82357  0.35027  0.48018  Biso   1.000  H
  N43      1.0000 0.22993  0.35717  0.17243  Biso   1.000  N
  H61      1.0000 0.36731  0.39910  0.16270  Biso   1.000  H
  H62      1.0000 0.37608  0.32951  0.18701  Biso   1.000  H
  N44      1.0000 0.11260  0.45249  0.17578  Biso   1.000  N
  H63      1.0000 0.20781  0.52978  0.16940  Biso   1.000  H
  H64      1.0000 0.11109  0.54527  0.19788  Biso   1.000  H
  C63      1.0000 0.92017  0.12482  0.40380  Biso   1.000  C
  C64      1.0000 0.83942  0.19197  0.45340  Biso   1.000  C
  C65      1.0000 0.74765  0.28009  0.42081  Biso   1.000  C
  C66      1.0000 0.18999  0.29409  0.17148  Biso   1.000  C
  C67      1.0000 0.16314  0.40441  0.14901  Biso   1.000  C
  C68      1.0000 0.00769  0.44668  0.17319  Biso   1.000  C
  N45      1.0000 0.81725  0.12328  0.39330  Biso   1.000  N
  O21      1.0000 0.98785  0.09268  0.38704  Biso   1.000  O
  C69      1.0000 0.75685  0.16381  0.42100  Biso   1.000  C
  H65      1.0000 0.82813  0.17588  0.48268  Biso   1.000  H
  N46      1.0000 0.71373  0.22331  0.40121  Biso   1.000  N
  O22      1.0000 0.71632  0.33592  0.41398  Biso   1.000  O
  O23      1.0000 0.23418  0.24467  0.18685  Biso   1.000  O
  N47      1.0000 0.09531  0.29509  0.15043  Biso   1.000  N
  C70      1.0000 0.06993  0.35971  0.13279  Biso   1.000  C
  H66      1.0000 0.19940  0.42597  0.12529  Biso   1.000  H
  N48      1.0000 0.98163  0.39239  0.14951  Biso   1.000  N
  O24      1.0000 0.94498  0.48527  0.18925  Biso   1.000  O
  C71      1.0000 0.76872  0.07520  0.36409  Biso   1.000  C
  H67      1.0000 0.70241  0.13729  0.43510  Biso   1.000  H
  C72      1.0000 0.62292  0.22178  0.37231  Biso   1.000  C
  C73      1.0000 0.04049  0.23489  0.13800  Biso   1.000  C
  H68      1.0000 0.06447  0.35817  0.10120  Biso   1.000  H
  C74      1.0000 0.87448  0.37789  0.13449  Biso   1.000  C
  N49      1.0000 0.74306  0.10177  0.32220  Biso   1.000  N
  H69      1.0000 0.81664  0.03710  0.36131  Biso   1.000  H
  H70      1.0000 0.70427  0.05841  0.37629  Biso   1.000  H
  N50      1.0000 0.64715  0.20608  0.32931  Biso   1.000  N
  H71      1.0000 0.57325  0.18840  0.38239  Biso   1.000  H
  H72      1.0000 0.58835  0.26568  0.37269  Biso   1.000  H
  H73      1.0000 0.02382  0.23628  0.10708  Biso   1.000  H
  H74      1.0000 0.08678  0.19639  0.14369  Biso   1.000  H
  N51      1.0000 0.94528  0.22560  0.15979  Biso   1.000  N
  N52      1.0000 0.82943  0.32151  0.15536  Biso   1.000  N
  H75      1.0000 0.83073  0.41747  0.13911  Biso   1.000  H
  H76      1.0000 0.87354  0.36919  0.10370  Biso   1.000  H
  C75      1.0000 0.80076  0.09159  0.28780  Biso   1.000  C
  C76      1.0000 0.64931  0.13917  0.31230  Biso   1.000  C
  C77      1.0000 0.65210  0.25277  0.29830  Biso   1.000  C
  C78      1.0000 0.84642  0.25257  0.14379  Biso   1.000  C
  C79      1.0000 0.93111  0.17161  0.18479  Biso   1.000  C
  C80      1.0000 0.76036  0.32787  0.18619  Biso   1.000  C
  N53      1.0000 0.75051  0.11980  0.25356  Biso   1.000  N
  O25      1.0000 0.88439  0.06119  0.28714  Biso   1.000  O
  C81      1.0000 0.65315  0.15050  0.26371  Biso   1.000  C
  H77      1.0000 0.58585  0.11369  0.31951  Biso   1.000  H
  N54      1.0000 0.65280  0.22148  0.25982  Biso   1.000  N
  O26      1.0000 0.65477  0.31352  0.30411  Biso   1.000  O
  H78      1.0000 0.83542  0.24542  0.11271  Biso   1.000  H
  C82      1.0000 0.76591  0.21497  0.16899  Biso   1.000  C
  O27      1.0000 0.00039  0.13441  0.19924  Biso   1.000  O
  N55      1.0000 0.82629  0.16421  0.19077  Biso   1.000  N
  N56      1.0000 0.72590  0.26598  0.19675  Biso   1.000  N
  O28      1.0000 0.73122  0.38107  0.20117  Biso   1.000  O
  C83      1.0000 0.78253  0.10758  0.21069  Biso   1.000  C
  H79      1.0000 0.59235  0.12969  0.24790  Biso   1.000  H
  C84      1.0000 0.63216  0.25600  0.22049  Biso   1.000  C
  H80      1.0000 0.70942  0.19560  0.14999  Biso   1.000  H
  H81      1.0000 0.83442  0.07118  0.21138  Biso   1.000  H
  H82      1.0000 0.72123  0.09229  0.19320  Biso   1.000  H
  H83      1.0000 0.60070  0.29981  0.22650  Biso   1.000  H
  H84      1.0000 0.58082  0.23032  0.20301  Biso   1.000  H
  C85      1.0000 0.54055  0.26509  0.63798  Biso   1.000  C
  N57      1.0000 0.59538  0.20489  0.65040  Biso   1.000  N
  N58      1.0000 0.44535  0.27438  0.65979  Biso   1.000  N
  H85      1.0000 0.52381  0.26370  0.60709  Biso   1.000  H
  H86      1.0000 0.58685  0.30358  0.64370  Biso   1.000  H
  C86      1.0000 0.56992  0.14032  0.63279  Biso   1.000  C
  C87      1.0000 0.69006  0.20588  0.67149  Biso   1.000  C
  C88      1.0000 0.34641  0.24740  0.64379  Biso   1.000  C
  C89      1.0000 0.43118  0.32842  0.68480  Biso   1.000  C
  N59      1.0000 0.48162  0.10758  0.64949  Biso   1.000  N
  C90      1.0000 0.66313  0.09561  0.64898  Biso   1.000  C
  H87      1.0000 0.56454  0.14181  0.60121  Biso   1.000  H
  N60      1.0000 0.72992  0.14280  0.67244  Biso   1.000  N
  O29      1.0000 0.73425  0.25530  0.68686  Biso   1.000  O
  N61      1.0000 0.32942  0.17851  0.65537  Biso   1.000  N
  H88      1.0000 0.33548  0.25461  0.61268  Biso   1.000  H
  C91      1.0000 0.26598  0.28500  0.66899  Biso   1.000  C
  N62      1.0000 0.32636  0.33577  0.69078  Biso   1.000  N
  O30      1.0000 0.50046  0.36557  0.69925  Biso   1.000  O
  C92      1.0000 0.37455  0.12209  0.63450  Biso   1.000  C
  C93      1.0000 0.50775  0.05330  0.67320  Biso   1.000  C
  N63      1.0000 0.61267  0.04748  0.67579  Biso   1.000  N
  H89      1.0000 0.69947  0.07401  0.62530  Biso   1.000  H
  C94      1.0000 0.83655  0.12830  0.68480  Biso   1.000  C
  C95      1.0000 0.26035  0.17211  0.68619  Biso   1.000  C
  N64      1.0000 0.22597  0.23399  0.69675  Biso   1.000  N
  H90      1.0000 0.20949  0.30438  0.64999  Biso   1.000  H
  C96      1.0000 0.28252  0.39239  0.71069  Biso   1.000  C
  H91      1.0000 0.33072  0.08250  0.63908  Biso   1.000  H
  H92      1.0000 0.37353  0.13078  0.60371  Biso   1.000  H
  O31      1.0000 0.44505  0.01470  0.68923  Biso   1.000  O
  C97      1.0000 0.66455  0.98848  0.69179  Biso   1.000  C
  N65      1.0000 0.84695  0.09338  0.72514  Biso   1.000  N
  H93      1.0000 0.86730  0.10088  0.66270  Biso   1.000  H
  H94      1.0000 0.87615  0.17052  0.68698  Biso   1.000  H
  O32      1.0000 0.23129  0.11891  0.70115  Biso   1.000  O
  C98      1.0000 0.13216  0.24398  0.72049  Biso   1.000  C
  N66      1.0000 0.25057  0.38017  0.75353  Biso   1.000  N
  H95      1.0000 0.33449  0.42880  0.71139  Biso   1.000  H
  H96      1.0000 0.22122  0.40769  0.69318  Biso   1.000  H
  N67      1.0000 0.72923  0.99876  0.72919  Biso   1.000  N
  H97      1.0000 0.70788  0.97020  0.66940  Biso   1.000  H
  H98      1.0000 0.61116  0.95470  0.69789  Biso   1.000  H
  C99      1.0000 0.83633  0.02151  0.72900  Biso   1.000  C
  C100     1.0000 0.89656  0.12030  0.75989  Biso   1.000  C
  N68      1.0000 0.15287  0.27850  0.75982  Biso   1.000  N
  H99      1.0000 0.10077  0.20022  0.72650  Biso   1.000  H
  H100     1.0000 0.08089  0.26971  0.70298  Biso   1.000  H
  C101     1.0000 0.15314  0.34948  0.76368  Biso   1.000  C
  C102     1.0000 0.30075  0.40838  0.78780  Biso   1.000  C
  C103     1.0000 0.70404  0.97452  0.76770  Biso   1.000  C
  C104     1.0000 0.87916  0.00740  0.77418  Biso   1.000  C
  H101     1.0000 0.87663  0.99747  0.70741  Biso   1.000  H
  N69      1.0000 0.91505  0.07128  0.78907  Biso   1.000  N
  O33      1.0000 0.92148  0.17911  0.76368  Biso   1.000  O
  C105     1.0000 0.15217  0.24721  0.79830  Biso   1.000  C
  H102     1.0000 0.09234  0.37029  0.74791  Biso   1.000  H
  C106     1.0000 0.14937  0.36080  0.81228  Biso   1.000  C
  N70      1.0000 0.24305  0.39820  0.82220  Biso   1.000  N
  O34      1.0000 0.38446  0.43878  0.78714  Biso   1.000  O
  O35      1.0000 0.61934  0.95048  0.77627  Biso   1.000  O
  N71      1.0000 0.78963  0.98142  0.79520  Biso   1.000  N
  H103     1.0000 0.93721  0.97432  0.77430  Biso   1.000  H
  C107     1.0000 0.97527  0.08131  0.82830  Biso   1.000  C
  O36      1.0000 0.15476  0.18651  0.80409  Biso   1.000  O
  N72      1.0000 0.14715  0.29390  0.82932  Biso   1.000  N
  H104     1.0000 0.08584  0.38628  0.81948  Biso   1.000  H
  C108     1.0000 0.26879  0.42478  0.86409  Biso   1.000  C
  C109     1.0000 0.79635  0.94929  0.83599  Biso   1.000  C
  N73      1.0000 0.91398  0.08568  0.86539  Biso   1.000  N
  H105     1.0000 0.02517  0.04411  0.83210  Biso   1.000  H
  H106     1.0000 0.01624  0.12268  0.82600  Biso   1.000  H
  C110     1.0000 0.12299  0.27820  0.87228  Biso   1.000  C
  N74      1.0000 0.31724  0.37669  0.89331  Biso   1.000  N
  H107     1.0000 0.31663  0.46287  0.86128  Biso   1.000  H
  H108     1.0000 0.20426  0.44161  0.87630  Biso   1.000  H
  N75      1.0000 0.79185  0.99429  0.87171  Biso   1.000  N
  H109     1.0000 0.73863  0.91690  0.83738  Biso   1.000  H
  H110     1.0000 0.86245  0.92410  0.83858  Biso   1.000  H
  C111     1.0000 0.88185  0.02960  0.88989  Biso   1.000  C
  C112     1.0000 0.89114  0.14528  0.88389  Biso   1.000  C
  N76      1.0000 0.21380  0.27671  0.90121  Biso   1.000  N
  H111     1.0000 0.07324  0.31158  0.88240  Biso   1.000  H
  H112     1.0000 0.08834  0.23429  0.87269  Biso   1.000  H
  C113     1.0000 0.25684  0.33621  0.92100  Biso   1.000  C
  C114     1.0000 0.42016  0.37520  0.90380  Biso   1.000  C
  C115     1.0000 0.70837  0.99682  0.89678  Biso   1.000  C
  C116     1.0000 0.83903  0.06139  0.93008  Biso   1.000  C
  H113     1.0000 0.94113  0.99876  0.89688  Biso   1.000  H
  O37      1.0000 0.91037  0.20091  0.87004  Biso   1.000  O
  N77      1.0000 0.84449  0.13232  0.92113  Biso   1.000  N
  C117     1.0000 0.24764  0.21989  0.92078  Biso   1.000  C
  H114     1.0000 0.20248  0.36269  0.93510  Biso   1.000  H
  C118     1.0000 0.33948  0.30800  0.95338  Biso   1.000  C
  N78      1.0000 0.43528  0.33318  0.93763  Biso   1.000  N
  O38      1.0000 0.48784  0.40729  0.88705  Biso   1.000  O
  N79      1.0000 0.73469  0.03512  0.93125  Biso   1.000  N
  O39      1.0000 0.62488  0.96732  0.89030  Biso   1.000  O
  H115     1.0000 0.88207  0.04932  0.95610  Biso   1.000  H
  C119     1.0000 0.83205  0.18269  0.95268  Biso   1.000  C
  O40      1.0000 0.21639  0.16411  0.91395  Biso   1.000  O
  N80      1.0000 0.32656  0.23658  0.94984  Biso   1.000  N
  H116     1.0000 0.32820  0.32409  0.98269  Biso   1.000  H
  C120     1.0000 0.53381  0.33001  0.96248  Biso   1.000  C
  C121     1.0000 0.66764  0.04222  0.96628  Biso   1.000  C
  N81      1.0000 0.72469  0.20121  0.95818  Biso   1.000  N
  H117     1.0000 0.86279  0.16649  0.98000  Biso   1.000  H
  H118     1.0000 0.87145  0.22272  0.94459  Biso   1.000  H
  C122     1.0000 0.36738  0.19009  0.98110  Biso   1.000  C
  N82      1.0000 0.58629  0.26668  0.96087  Biso   1.000  N
  H119     1.0000 0.52010  0.34009  0.99239  Biso   1.000  H
  H120     1.0000 0.58076  0.36477  0.95240  Biso   1.000  H
  N83      1.0000 0.61156  0.10500  0.96631  Biso   1.000  N
  H121     1.0000 0.61668  0.00531  0.96549  Biso   1.000  H
  H122     1.0000 0.71030  0.03830  0.99309  Biso   1.000  H
  C123     1.0000 0.65707  0.16540  0.98528  Biso   1.000  C
  C124     1.0000 0.68294  0.26027  0.94509  Biso   1.000  C
  N84      1.0000 0.47504  0.17141  0.97475  Biso   1.000  N
  H123     1.0000 0.32356  0.14970  0.98019  Biso   1.000  H
  H124     1.0000 0.36277  0.21020  0.00953  Biso   1.000  H
  C125     1.0000 0.56349  0.21249  0.98879  Biso   1.000  C
  C126     1.0000 0.50390  0.10798  0.96359  Biso   1.000  C
  H125     1.0000 0.69181  0.15621  0.01361  Biso   1.000  H
  O41      1.0000 0.72588  0.30169  0.92341  Biso   1.000  O
  H126     1.0000 0.55661  0.22818  0.01851  Biso   1.000  H
  O42      1.0000 0.44494  0.06278  0.95316  Biso   1.000  O
  C127     1.0000 0.45951  0.73486  0.36200  Biso   1.000  C
  N85      1.0000 0.55470  0.72557  0.34019  Biso   1.000  N
  N86      1.0000 0.40476  0.79506  0.34958  Biso   1.000  N
  H127     1.0000 0.47625  0.73630  0.39289  Biso   1.000  H
  H128     1.0000 0.41321  0.69637  0.35631  Biso   1.000  H
  C128     1.0000 0.56888  0.67158  0.31518  Biso   1.000  C
  C129     1.0000 0.65365  0.75260  0.35618  Biso   1.000  C
  C130     1.0000 0.43013  0.85968  0.36719  Biso   1.000  C
  C131     1.0000 0.31000  0.79407  0.32849  Biso   1.000  C
  N87      1.0000 0.67370  0.66418  0.30924  Biso   1.000  N
  O43      1.0000 0.49959  0.63438  0.30073  Biso   1.000  O
  C132     1.0000 0.73408  0.71500  0.33099  Biso   1.000  C
  N88      1.0000 0.67064  0.82149  0.34461  Biso   1.000  N
  H129     1.0000 0.66465  0.74539  0.38729  Biso   1.000  H
  N89      1.0000 0.51843  0.89237  0.35049  Biso   1.000  N
  C133     1.0000 0.33693  0.90439  0.35100  Biso   1.000  C
  H130     1.0000 0.43552  0.85819  0.39880  Biso   1.000  H
  O44      1.0000 0.26581  0.74470  0.31312  Biso   1.000  O
  N90      1.0000 0.27014  0.85720  0.32754  Biso   1.000  N
  C134     1.0000 0.71753  0.60761  0.28929  Biso   1.000  C
  N91      1.0000 0.77409  0.76596  0.30326  Biso   1.000  N
  H131     1.0000 0.79065  0.69557  0.34999  Biso   1.000  H
  C135     1.0000 0.73971  0.82789  0.31379  Biso   1.000  C
  C136     1.0000 0.62551  0.87786  0.36551  Biso   1.000  C
  C137     1.0000 0.49230  0.94665  0.32678  Biso   1.000  C
  N92      1.0000 0.38739  0.95247  0.32419  Biso   1.000  N
  H132     1.0000 0.30059  0.92599  0.37471  Biso   1.000  H
  C138     1.0000 0.16352  0.87170  0.31521  Biso   1.000  C
  N93      1.0000 0.74948  0.61978  0.24645  Biso   1.000  N
  H133     1.0000 0.66557  0.57120  0.28859  Biso   1.000  H
  H134     1.0000 0.77884  0.59226  0.30680  Biso   1.000  H
  C139     1.0000 0.86790  0.75597  0.27948  Biso   1.000  C
  O45      1.0000 0.76877  0.88109  0.29883  Biso   1.000  O
  H135     1.0000 0.66934  0.91750  0.36090  Biso   1.000  H
  H136     1.0000 0.62653  0.86917  0.39631  Biso   1.000  H
  O46      1.0000 0.55501  0.98530  0.31075  Biso   1.000  O
  C140     1.0000 0.33551  0.01152  0.30819  Biso   1.000  C
  N94      1.0000 0.15311  0.90657  0.27487  Biso   1.000  N
  H137     1.0000 0.13276  0.89907  0.33731  Biso   1.000  H
  H138     1.0000 0.12391  0.82948  0.31300  Biso   1.000  H
  C141     1.0000 0.69931  0.59157  0.21221  Biso   1.000  C
  C142     1.0000 0.84691  0.65047  0.23630  Biso   1.000  C
  N95      1.0000 0.84719  0.72150  0.24015  Biso   1.000  N
  H139     1.0000 0.89929  0.79978  0.27351  Biso   1.000  H
  H140     1.0000 0.91917  0.73029  0.29700  Biso   1.000  H
  N96      1.0000 0.27082  0.00124  0.27079  Biso   1.000  N
  H141     1.0000 0.29226  0.02980  0.33061  Biso   1.000  H
  H142     1.0000 0.38889  0.04535  0.30209  Biso   1.000  H
  C143     1.0000 0.16373  0.97849  0.27101  Biso   1.000  C
  C144     1.0000 0.10350  0.87970  0.24009  Biso   1.000  C
  O47      1.0000 0.61560  0.56117  0.21284  Biso   1.000  O
  N97      1.0000 0.75701  0.60180  0.17778  Biso   1.000  N
  C145     1.0000 0.85069  0.63920  0.18770  Biso   1.000  C
  H143     1.0000 0.90772  0.62966  0.25211  Biso   1.000  H
  C146     1.0000 0.84789  0.75279  0.20171  Biso   1.000  C
  C147     1.0000 0.29602  0.02553  0.23228  Biso   1.000  C
  C148     1.0000 0.12089  0.99260  0.22580  Biso   1.000  C
  H144     1.0000 0.12343  0.00248  0.29261  Biso   1.000  H
  O48      1.0000 0.07866  0.82089  0.23633  Biso   1.000  O
  N98      1.0000 0.08501  0.92867  0.21091  Biso   1.000  N
  C149     1.0000 0.73127  0.57518  0.13589  Biso   1.000  C
  N99      1.0000 0.85291  0.70610  0.17066  Biso   1.000  N
  H145     1.0000 0.91422  0.61367  0.18050  Biso   1.000  H
  O49      1.0000 0.84530  0.81349  0.19589  Biso   1.000  O
  O50      1.0000 0.38071  0.04952  0.22371  Biso   1.000  O
  N100     1.0000 0.21043  0.01863  0.20481  Biso   1.000  N
  H146     1.0000 0.06285  0.02568  0.22571  Biso   1.000  H
  C150     1.0000 0.02479  0.91869  0.17171  Biso   1.000  C
  N101     1.0000 0.68282  0.62331  0.10667  Biso   1.000  N
  H147     1.0000 0.68343  0.53708  0.13870  Biso   1.000  H
  H148     1.0000 0.79580  0.55839  0.12371  Biso   1.000  H
  C151     1.0000 0.87707  0.72180  0.12770  Biso   1.000  C
  C152     1.0000 0.20371  0.05071  0.16399  Biso   1.000  C
  N102     1.0000 0.08608  0.91427  0.13459  Biso   1.000  N
  H149     1.0000 0.97489  0.95589  0.16791  Biso   1.000  H
  H150     1.0000 0.98381  0.87727  0.17398  Biso   1.000  H
  C153     1.0000 0.74322  0.66379  0.07901  Biso   1.000  C
  C154     1.0000 0.57990  0.62480  0.09621  Biso   1.000  C
  N103     1.0000 0.78626  0.72329  0.09877  Biso   1.000  N
  H151     1.0000 0.92682  0.68837  0.11761  Biso   1.000  H
  H152     1.0000 0.91172  0.76566  0.12729  Biso   1.000  H
  N104     1.0000 0.20821  0.00571  0.12830  Biso   1.000  N
  H153     1.0000 0.26143  0.08310  0.16260  Biso   1.000  H
  H154     1.0000 0.13761  0.07594  0.16140  Biso   1.000  H
  C155     1.0000 0.10892  0.85467  0.11609  Biso   1.000  C
  C156     1.0000 0.11820  0.97040  0.11009  Biso   1.000  C
  H155     1.0000 0.79758  0.63726  0.06491  Biso   1.000  H
  C157     1.0000 0.66057  0.69200  0.04660  Biso   1.000  C
  O51      1.0000 0.51222  0.59271  0.11293  Biso   1.000  O
  N105     1.0000 0.56478  0.66677  0.06235  Biso   1.000  N
  C158     1.0000 0.75242  0.78006  0.07920  Biso   1.000  C
  C159     1.0000 0.29169  0.00318  0.10319  Biso   1.000  C
  N106     1.0000 0.15557  0.86768  0.07885  Biso   1.000  N
  O52      1.0000 0.08969  0.79909  0.12997  Biso   1.000  O
  C160     1.0000 0.16103  0.93856  0.06990  Biso   1.000  C
  H156     1.0000 0.05893  0.00124  0.10310  Biso   1.000  H
  N107     1.0000 0.67350  0.76337  0.05017  Biso   1.000  N
  H157     1.0000 0.67186  0.67591  0.01729  Biso   1.000  H
  C161     1.0000 0.46633  0.66999  0.03750  Biso   1.000  C
  O53      1.0000 0.78367  0.83589  0.08603  Biso   1.000  O
  N108     1.0000 0.26537  0.96488  0.06876  Biso   1.000  N
  O54      1.0000 0.37518  0.03273  0.10968  Biso   1.000  O
  C162     1.0000 0.16800  0.81727  0.04730  Biso   1.000  C
  H158     1.0000 0.11800  0.95068  0.04391  Biso   1.000  H
  C163     1.0000 0.63268  0.80986  0.01891  Biso   1.000  C
  N109     1.0000 0.41377  0.73327  0.03911  Biso   1.000  N
  H159     1.0000 0.47996  0.65986  0.00759  Biso   1.000  H
  H160     1.0000 0.41930  0.63518  0.04761  Biso   1.000  H
  C164     1.0000 0.33242  0.95778  0.03370  Biso   1.000  C
  N110     1.0000 0.27536  0.79879  0.04180  Biso   1.000  N
  H161     1.0000 0.13727  0.83346  0.02001  Biso   1.000  H
  H162     1.0000 0.12861  0.77728  0.05539  Biso   1.000  H
  N111     1.0000 0.52502  0.82859  0.02523  Biso   1.000  N
  H163     1.0000 0.67649  0.85030  0.01979  Biso   1.000  H
  H164     1.0000 0.63729  0.78980  0.99048  Biso   1.000  H
  C165     1.0000 0.43656  0.78746  0.01119  Biso   1.000  C
  C166     1.0000 0.31712  0.73968  0.05489  Biso   1.000  C
  N112     1.0000 0.38850  0.89500  0.03367  Biso   1.000  N
  H165     1.0000 0.38338  0.99469  0.03449  Biso   1.000  H
  H166     1.0000 0.28976  0.96165  0.00689  Biso   1.000  H
  C167     1.0000 0.34298  0.83460  0.01470  Biso   1.000  C
  C168     1.0000 0.49615  0.89197  0.03639  Biso   1.000  C
  H167     1.0000 0.44345  0.77177  0.98147  Biso   1.000  H
  O55      1.0000 0.27418  0.69831  0.07661  Biso   1.000  O
  H168     1.0000 0.30825  0.84379  0.98637  Biso   1.000  H
  O56      1.0000 0.55512  0.93717  0.04685  Biso   1.000  O
