data_image0
_cell_length_a       13.231
_cell_length_b       18.813
_cell_length_c       14.036
_cell_angle_alpha    90
_cell_angle_beta     90
_cell_angle_gamma    90

_symmetry_space_group_name_H-M    "P 1"
_symmetry_int_tables_number       1

loop_
  _symmetry_equiv_pos_as_xyz
  'x, y, z'

loop_
  _atom_site_label
  _atom_site_occupancy
  _atom_site_fract_x
  _atom_site_fract_y
  _atom_site_fract_z
  _atom_site_thermal_displace_type
  _atom_site_B_iso_or_equiv
  _atom_site_type_symbol
  C1       1.0000 0.61840  0.53059  0.48062  Biso   1.000  C
  N1       1.0000 0.58847  0.58157  0.55215  Biso   1.000  N
  N2       1.0000 0.71461  0.54632  0.43517  Biso   1.000  N
  H1       1.0000 0.56534  0.52852  0.43103  Biso   1.000  H
  H2       1.0000 0.62270  0.48302  0.51047  Biso   1.000  H
  C2       1.0000 0.53518  0.64301  0.53014  Biso   1.000  C
  C3       1.0000 0.62361  0.58114  0.64983  Biso   1.000  C
  C4       1.0000 0.71922  0.57678  0.34618  Biso   1.000  C
  C5       1.0000 0.81105  0.51592  0.46352  Biso   1.000  C
  O1       1.0000 0.49210  0.65428  0.45490  Biso   1.000  O
  N3       1.0000 0.53526  0.68554  0.60908  Biso   1.000  N
  N4       1.0000 0.73154  0.59023  0.66415  Biso   1.000  N
  C6       1.0000 0.57773  0.65072  0.69258  Biso   1.000  C
  H3       1.0000 0.59822  0.53830  0.68453  Biso   1.000  H
  O2       1.0000 0.64666  0.59624  0.29944  Biso   1.000  O
  N5       1.0000 0.81861  0.57795  0.31754  Biso   1.000  N
  N6       1.0000 0.85398  0.54361  0.55087  Biso   1.000  N
  H4       1.0000 0.80840  0.46282  0.46409  Biso   1.000  H
  C7       1.0000 0.88535  0.54399  0.38508  Biso   1.000  C
  C8       1.0000 0.47510  0.75001  0.61542  Biso   1.000  C
  C9       1.0000 0.75270  0.64891  0.72079  Biso   1.000  C
  C10      1.0000 0.80765  0.53739  0.64392  Biso   1.000  C
  N7       1.0000 0.66458  0.68538  0.73468  Biso   1.000  N
  H5       1.0000 0.52460  0.64009  0.74124  Biso   1.000  H
  C11      1.0000 0.85096  0.62032  0.23589  Biso   1.000  C
  C12      1.0000 0.93901  0.58502  0.53512  Biso   1.000  C
  N8       1.0000 0.95322  0.58959  0.43830  Biso   1.000  N
  H6       1.0000 0.92291  0.50391  0.35473  Biso   1.000  H
  H7       1.0000 0.42461  0.75001  0.56334  Biso   1.000  H
  H8       1.0000 0.43784  0.75001  0.67647  Biso   1.000  H
  N9       1.0000 0.53526  0.81449  0.60908  Biso   1.000  N
  O3       1.0000 0.83592  0.66321  0.75228  Biso   1.000  O
  H9       1.0000 0.77651  0.48971  0.64940  Biso   1.000  H
  H10      1.0000 0.86123  0.54080  0.69300  Biso   1.000  H
  C13      1.0000 0.66049  0.75001  0.79132  Biso   1.000  C
  N10      1.0000 0.88587  0.69091  0.26026  Biso   1.000  N
  H11      1.0000 0.90605  0.59480  0.20269  Biso   1.000  H
  H12      1.0000 0.79359  0.62462  0.19087  Biso   1.000  H
  O4       1.0000 0.99365  0.60974  0.59632  Biso   1.000  O
  C14      1.0000 0.04595  0.61947  0.39869  Biso   1.000  C
  C15      1.0000 0.53518  0.85701  0.53014  Biso   1.000  C
  C16      1.0000 0.57773  0.84931  0.69258  Biso   1.000  C
  H13      1.0000 0.71778  0.75001  0.83671  Biso   1.000  H
  H14      1.0000 0.59723  0.75001  0.82894  Biso   1.000  H
  N11      1.0000 0.66458  0.81465  0.73468  Biso   1.000  N
  C17      1.0000 0.82594  0.75001  0.24637  Biso   1.000  C
  C18      1.0000 0.99184  0.70877  0.27152  Biso   1.000  C
  N12      1.0000 0.03386  0.69122  0.36456  Biso   1.000  N
  H15      1.0000 0.09901  0.61883  0.44828  Biso   1.000  H
  H16      1.0000 0.06893  0.58901  0.34540  Biso   1.000  H
  O5       1.0000 0.49210  0.84574  0.45490  Biso   1.000  O
  N13      1.0000 0.58847  0.91846  0.55215  Biso   1.000  N
  H17      1.0000 0.52460  0.85994  0.74124  Biso   1.000  H
  C19      1.0000 0.62361  0.91889  0.64983  Biso   1.000  C
  C20      1.0000 0.75270  0.85111  0.72079  Biso   1.000  C
  O6       1.0000 0.73675  0.75001  0.22528  Biso   1.000  O
  N14      1.0000 0.88587  0.80912  0.26026  Biso   1.000  N
  C21      1.0000 0.99184  0.79126  0.27152  Biso   1.000  C
  H18      1.0000 0.03386  0.68899  0.21851  Biso   1.000  H
  C22      1.0000 0.06515  0.75001  0.41344  Biso   1.000  C
  C23      1.0000 0.61840  0.96944  0.48062  Biso   1.000  C
  N15      1.0000 0.73154  0.90980  0.66415  Biso   1.000  N
  H19      1.0000 0.59822  0.96173  0.68453  Biso   1.000  H
  O7       1.0000 0.83592  0.83681  0.75228  Biso   1.000  O
  C24      1.0000 0.85096  0.87971  0.23589  Biso   1.000  C
  N16      1.0000 0.03386  0.80880  0.36456  Biso   1.000  N
  H20      1.0000 0.03386  0.81103  0.21851  Biso   1.000  H
  O8       1.0000 0.11541  0.75001  0.48753  Biso   1.000  O
  N17      1.0000 0.71461  0.95365  0.43517  Biso   1.000  N
  H21      1.0000 0.56534  0.97151  0.43103  Biso   1.000  H
  H22      1.0000 0.62270  0.01701  0.51047  Biso   1.000  H
  C25      1.0000 0.80765  0.96263  0.64392  Biso   1.000  C
  N18      1.0000 0.81861  0.92208  0.31754  Biso   1.000  N
  H23      1.0000 0.90605  0.90523  0.20269  Biso   1.000  H
  H24      1.0000 0.79359  0.87541  0.19087  Biso   1.000  H
  C26      1.0000 0.04595  0.88056  0.39869  Biso   1.000  C
  C27      1.0000 0.71922  0.92324  0.34618  Biso   1.000  C
  C28      1.0000 0.81105  0.98411  0.46352  Biso   1.000  C
  N19      1.0000 0.85398  0.95641  0.55087  Biso   1.000  N
  H25      1.0000 0.86123  0.95923  0.69300  Biso   1.000  H
  H26      1.0000 0.77651  0.01031  0.64940  Biso   1.000  H
  C29      1.0000 0.88535  0.95604  0.38508  Biso   1.000  C
  N20      1.0000 0.95322  0.91043  0.43830  Biso   1.000  N
  H27      1.0000 0.09901  0.88120  0.44828  Biso   1.000  H
  H28      1.0000 0.06893  0.91102  0.34540  Biso   1.000  H
  O9       1.0000 0.64666  0.90379  0.29944  Biso   1.000  O
  H29      1.0000 0.80840  0.03721  0.46409  Biso   1.000  H
  C30      1.0000 0.93901  0.91501  0.53512  Biso   1.000  C
  H30      1.0000 0.92291  0.99612  0.35473  Biso   1.000  H
  O10      1.0000 0.99365  0.89029  0.59632  Biso   1.000  O
  C31      1.0000 0.38160  0.46941  0.51938  Biso   1.000  C
  N21      1.0000 0.41161  0.41843  0.44785  Biso   1.000  N
  N22      1.0000 0.28539  0.45368  0.56483  Biso   1.000  N
  H31      1.0000 0.43474  0.47148  0.56904  Biso   1.000  H
  H32      1.0000 0.37730  0.51698  0.48953  Biso   1.000  H
  C32      1.0000 0.37639  0.41886  0.35017  Biso   1.000  C
  C33      1.0000 0.46482  0.35699  0.46993  Biso   1.000  C
  C34      1.0000 0.18903  0.48413  0.53648  Biso   1.000  C
  C35      1.0000 0.28078  0.42327  0.65382  Biso   1.000  C
  C36      1.0000 0.42234  0.34928  0.30742  Biso   1.000  C
  N23      1.0000 0.26846  0.40977  0.33585  Biso   1.000  N
  H33      1.0000 0.40178  0.46170  0.31547  Biso   1.000  H
  N24      1.0000 0.46474  0.31452  0.39092  Biso   1.000  N
  O11      1.0000 0.50797  0.34572  0.54510  Biso   1.000  O
  N25      1.0000 0.14602  0.45639  0.44913  Biso   1.000  N
  H34      1.0000 0.19160  0.53723  0.53591  Biso   1.000  H
  C37      1.0000 0.11473  0.45607  0.61492  Biso   1.000  C
  O12      1.0000 0.35341  0.40376  0.70063  Biso   1.000  O
  N26      1.0000 0.18139  0.42210  0.68246  Biso   1.000  N
  N27      1.0000 0.33542  0.31468  0.26532  Biso   1.000  N
  H35      1.0000 0.47540  0.35991  0.25883  Biso   1.000  H
  C38      1.0000 0.24730  0.35114  0.27921  Biso   1.000  C
  C39      1.0000 0.19243  0.46261  0.35608  Biso   1.000  C
  C40      1.0000 0.52490  0.24999  0.38458  Biso   1.000  C
  C41      1.0000 0.06099  0.41503  0.46488  Biso   1.000  C
  N28      1.0000 0.04686  0.41041  0.56170  Biso   1.000  N
  H36      1.0000 0.07709  0.49609  0.64527  Biso   1.000  H
  C42      1.0000 0.14912  0.37974  0.76411  Biso   1.000  C
  C43      1.0000 0.33951  0.24999  0.20868  Biso   1.000  C
  O13      1.0000 0.16408  0.33684  0.24772  Biso   1.000  O
  H37      1.0000 0.22349  0.51029  0.35060  Biso   1.000  H
  H38      1.0000 0.13884  0.45920  0.30700  Biso   1.000  H
  N29      1.0000 0.46474  0.18551  0.39092  Biso   1.000  N
  H39      1.0000 0.57539  0.24999  0.43673  Biso   1.000  H
  H40      1.0000 0.56224  0.24999  0.32353  Biso   1.000  H
  O14      1.0000 0.00635  0.39032  0.40368  Biso   1.000  O
  C44      1.0000 0.95412  0.38059  0.60131  Biso   1.000  C
  N30      1.0000 0.11420  0.30915  0.73974  Biso   1.000  N
  H41      1.0000 0.09402  0.40520  0.79731  Biso   1.000  H
  H42      1.0000 0.20641  0.37543  0.80913  Biso   1.000  H
  H43      1.0000 0.28222  0.24999  0.16329  Biso   1.000  H
  H44      1.0000 0.40284  0.24999  0.17113  Biso   1.000  H
  N31      1.0000 0.33542  0.18535  0.26532  Biso   1.000  N
  C45      1.0000 0.42234  0.15069  0.30742  Biso   1.000  C
  C46      1.0000 0.46482  0.14299  0.46993  Biso   1.000  C
  N32      1.0000 0.96614  0.30883  0.63544  Biso   1.000  N
  H45      1.0000 0.90099  0.38123  0.55172  Biso   1.000  H
  H46      1.0000 0.93107  0.41099  0.65460  Biso   1.000  H
  C47      1.0000 0.00816  0.29129  0.72848  Biso   1.000  C
  C48      1.0000 0.17414  0.24999  0.75363  Biso   1.000  C
  C49      1.0000 0.24730  0.14889  0.27921  Biso   1.000  C
  H47      1.0000 0.47540  0.14012  0.25883  Biso   1.000  H
  C50      1.0000 0.37639  0.08111  0.35017  Biso   1.000  C
  N33      1.0000 0.41161  0.08154  0.44785  Biso   1.000  N
  O15      1.0000 0.50797  0.15431  0.54510  Biso   1.000  O
  C51      1.0000 0.93493  0.24999  0.58663  Biso   1.000  C
  C52      1.0000 0.00816  0.20874  0.72848  Biso   1.000  C
  H48      1.0000 0.96622  0.31101  0.78149  Biso   1.000  H
  N34      1.0000 0.11420  0.19088  0.73974  Biso   1.000  N
  O16      1.0000 0.26332  0.24999  0.77472  Biso   1.000  O
  N35      1.0000 0.26846  0.09026  0.33585  Biso   1.000  N
  O17      1.0000 0.16408  0.16319  0.24772  Biso   1.000  O
  H49      1.0000 0.40178  0.03832  0.31547  Biso   1.000  H
  C53      1.0000 0.38160  0.03056  0.51938  Biso   1.000  C
  N36      1.0000 0.96614  0.19120  0.63544  Biso   1.000  N
  O18      1.0000 0.88459  0.24999  0.51254  Biso   1.000  O
  H50      1.0000 0.96622  0.18902  0.78149  Biso   1.000  H
  C54      1.0000 0.14912  0.12029  0.76411  Biso   1.000  C
  C55      1.0000 0.19243  0.03742  0.35608  Biso   1.000  C
  N37      1.0000 0.28539  0.04635  0.56483  Biso   1.000  N
  H51      1.0000 0.43474  0.02849  0.56904  Biso   1.000  H
  H52      1.0000 0.37730  0.98299  0.48953  Biso   1.000  H
  C56      1.0000 0.95412  0.11944  0.60131  Biso   1.000  C
  N38      1.0000 0.18139  0.07792  0.68246  Biso   1.000  N
  H53      1.0000 0.09402  0.09483  0.79731  Biso   1.000  H
  H54      1.0000 0.20641  0.12459  0.80913  Biso   1.000  H
  N39      1.0000 0.14602  0.04359  0.44913  Biso   1.000  N
  H55      1.0000 0.13884  0.04082  0.30700  Biso   1.000  H
  H56      1.0000 0.22349  0.98969  0.35060  Biso   1.000  H
  C57      1.0000 0.18903  0.01589  0.53648  Biso   1.000  C
  C58      1.0000 0.28078  0.07676  0.65382  Biso   1.000  C
  N40      1.0000 0.04686  0.08957  0.56170  Biso   1.000  N
  H57      1.0000 0.90099  0.11880  0.55172  Biso   1.000  H
  H58      1.0000 0.93107  0.08898  0.65460  Biso   1.000  H
  C59      1.0000 0.11473  0.04396  0.61492  Biso   1.000  C
  C60      1.0000 0.06099  0.08499  0.46488  Biso   1.000  C
  H59      1.0000 0.19160  0.96279  0.53591  Biso   1.000  H
  O19      1.0000 0.35341  0.09626  0.70063  Biso   1.000  O
  H60      1.0000 0.07709  0.00388  0.64527  Biso   1.000  H
  O20      1.0000 0.00635  0.10971  0.40368  Biso   1.000  O
  C61      1.0000 0.64916  0.37974  0.73589  Biso   1.000  C
  N41      1.0000 0.61416  0.30915  0.76026  Biso   1.000  N
  N42      1.0000 0.68143  0.42210  0.81754  Biso   1.000  N
  H61      1.0000 0.59398  0.40520  0.70269  Biso   1.000  H
  H62      1.0000 0.70645  0.37543  0.69094  Biso   1.000  H
  C62      1.0000 0.50820  0.29129  0.77152  Biso   1.000  C
  C63      1.0000 0.67410  0.24999  0.74644  Biso   1.000  C
  C64      1.0000 0.78082  0.42327  0.84618  Biso   1.000  C
  C65      1.0000 0.61469  0.45607  0.88508  Biso   1.000  C
  C66      1.0000 0.50820  0.20874  0.77152  Biso   1.000  C
  N43      1.0000 0.46618  0.30883  0.86456  Biso   1.000  N
  H63      1.0000 0.46618  0.31101  0.71851  Biso   1.000  H
  N44      1.0000 0.61416  0.19088  0.76026  Biso   1.000  N
  O21      1.0000 0.76336  0.24999  0.72528  Biso   1.000  O
  N45      1.0000 0.78543  0.45368  0.93517  Biso   1.000  N
  O22      1.0000 0.85345  0.40376  0.79944  Biso   1.000  O
  N46      1.0000 0.54682  0.41041  0.93830  Biso   1.000  N
  C67      1.0000 0.68899  0.48413  0.96352  Biso   1.000  C
  H64      1.0000 0.57713  0.49609  0.85473  Biso   1.000  H
  N47      1.0000 0.46618  0.19120  0.86456  Biso   1.000  N
  H65      1.0000 0.46618  0.18902  0.71851  Biso   1.000  H
  C68      1.0000 0.43489  0.24999  0.91344  Biso   1.000  C
  C69      1.0000 0.45409  0.38059  0.89869  Biso   1.000  C
  C70      1.0000 0.64916  0.12029  0.73589  Biso   1.000  C
  C71      1.0000 0.88164  0.46941  0.98062  Biso   1.000  C
  C72      1.0000 0.56103  0.41503  0.03512  Biso   1.000  C
  N48      1.0000 0.64606  0.45639  0.05087  Biso   1.000  N
  H66      1.0000 0.69163  0.53723  0.96409  Biso   1.000  H
  C73      1.0000 0.45409  0.11944  0.89869  Biso   1.000  C
  O23      1.0000 0.38463  0.24999  0.98753  Biso   1.000  O
  H67      1.0000 0.40103  0.38123  0.94828  Biso   1.000  H
  H68      1.0000 0.43111  0.41099  0.84540  Biso   1.000  H
  N49      1.0000 0.68143  0.07792  0.81754  Biso   1.000  N
  H69      1.0000 0.59398  0.09483  0.70269  Biso   1.000  H
  H70      1.0000 0.70645  0.12459  0.69094  Biso   1.000  H
  H71      1.0000 0.93470  0.47148  0.93103  Biso   1.000  H
  N50      1.0000 0.91157  0.41843  0.05215  Biso   1.000  N
  H72      1.0000 0.87733  0.51698  0.01047  Biso   1.000  H
  O24      1.0000 0.50639  0.39032  0.09632  Biso   1.000  O
  C74      1.0000 0.69239  0.46261  0.14392  Biso   1.000  C
  N51      1.0000 0.54682  0.08957  0.93830  Biso   1.000  N
  H73      1.0000 0.40103  0.11880  0.94828  Biso   1.000  H
  H74      1.0000 0.43111  0.08898  0.84540  Biso   1.000  H
  C75      1.0000 0.78082  0.07676  0.84618  Biso   1.000  C
  C76      1.0000 0.61469  0.04396  0.88508  Biso   1.000  C
  C77      1.0000 0.96486  0.35699  0.03014  Biso   1.000  C
  C78      1.0000 0.87643  0.41886  0.14983  Biso   1.000  C
  N52      1.0000 0.76850  0.40977  0.16415  Biso   1.000  N
  H75      1.0000 0.72353  0.51029  0.14940  Biso   1.000  H
  H76      1.0000 0.63880  0.45920  0.19300  Biso   1.000  H
  C79      1.0000 0.56103  0.08499  0.03512  Biso   1.000  C
  O25      1.0000 0.85345  0.09626  0.79944  Biso   1.000  O
  N53      1.0000 0.78543  0.04635  0.93517  Biso   1.000  N
  C80      1.0000 0.68899  0.01589  0.96352  Biso   1.000  C
  H77      1.0000 0.57713  0.00388  0.85473  Biso   1.000  H
  N54      1.0000 0.96478  0.31452  0.10908  Biso   1.000  N
  O26      1.0000 0.00794  0.34572  0.95490  Biso   1.000  O
  C81      1.0000 0.92230  0.34928  0.19258  Biso   1.000  C
  H78      1.0000 0.90182  0.46170  0.18453  Biso   1.000  H
  C82      1.0000 0.74734  0.35114  0.22079  Biso   1.000  C
  O27      1.0000 0.50639  0.10971  0.09632  Biso   1.000  O
  N55      1.0000 0.64606  0.04359  0.05087  Biso   1.000  N
  C83      1.0000 0.88164  0.03056  0.98062  Biso   1.000  C
  H79      1.0000 0.69163  0.96279  0.96409  Biso   1.000  H
  C84      1.0000 0.02494  0.24999  0.11542  Biso   1.000  C
  N56      1.0000 0.83546  0.31468  0.23468  Biso   1.000  N
  H80      1.0000 0.97544  0.35991  0.24124  Biso   1.000  H
  O28      1.0000 0.66412  0.33684  0.25228  Biso   1.000  O
  C85      1.0000 0.69239  0.03742  0.14392  Biso   1.000  C
  H81      1.0000 0.93470  0.02849  0.93103  Biso   1.000  H
  H82      1.0000 0.87733  0.98299  0.01047  Biso   1.000  H
  N57      1.0000 0.91157  0.08154  0.05215  Biso   1.000  N
  N58      1.0000 0.96478  0.18551  0.10908  Biso   1.000  N
  H83      1.0000 0.07543  0.24999  0.06334  Biso   1.000  H
  H84      1.0000 0.06220  0.24999  0.17647  Biso   1.000  H
  C86      1.0000 0.83954  0.24999  0.29132  Biso   1.000  C
  H85      1.0000 0.72353  0.98969  0.14940  Biso   1.000  H
  N59      1.0000 0.76850  0.09026  0.16415  Biso   1.000  N
  H86      1.0000 0.63880  0.04082  0.19300  Biso   1.000  H
  C87      1.0000 0.96486  0.14299  0.03014  Biso   1.000  C
  C88      1.0000 0.87643  0.08111  0.14983  Biso   1.000  C
  C89      1.0000 0.92230  0.15069  0.19258  Biso   1.000  C
  N60      1.0000 0.83546  0.18535  0.23468  Biso   1.000  N
  H87      1.0000 0.78225  0.24999  0.33671  Biso   1.000  H
  H88      1.0000 0.90280  0.24999  0.32894  Biso   1.000  H
  C90      1.0000 0.74734  0.14889  0.22079  Biso   1.000  C
  O29      1.0000 0.00794  0.15431  0.95490  Biso   1.000  O
  H89      1.0000 0.90182  0.03832  0.18453  Biso   1.000  H
  H90      1.0000 0.97544  0.14012  0.24124  Biso   1.000  H
  O30      1.0000 0.66412  0.16319  0.25228  Biso   1.000  O
  C91      1.0000 0.35092  0.62032  0.26411  Biso   1.000  C
  N61      1.0000 0.31857  0.57795  0.18246  Biso   1.000  N
  N62      1.0000 0.38584  0.69091  0.23974  Biso   1.000  N
  H91      1.0000 0.40602  0.59480  0.29731  Biso   1.000  H
  H92      1.0000 0.29363  0.62462  0.30913  Biso   1.000  H
  C92      1.0000 0.38531  0.54399  0.11492  Biso   1.000  C
  C93      1.0000 0.21918  0.57678  0.15382  Biso   1.000  C
  C94      1.0000 0.32590  0.75001  0.25363  Biso   1.000  C
  C95      1.0000 0.49180  0.70877  0.22848  Biso   1.000  C
  C96      1.0000 0.31101  0.51592  0.03648  Biso   1.000  C
  N63      1.0000 0.45318  0.58959  0.06170  Biso   1.000  N
  H93      1.0000 0.42295  0.50391  0.14527  Biso   1.000  H
  N64      1.0000 0.21457  0.54632  0.06483  Biso   1.000  N
  O31      1.0000 0.14663  0.59624  0.20063  Biso   1.000  O
  O32      1.0000 0.23672  0.75001  0.27472  Biso   1.000  O
  N65      1.0000 0.38584  0.80912  0.23974  Biso   1.000  N
  N66      1.0000 0.53382  0.69122  0.13544  Biso   1.000  N
  H94      1.0000 0.53382  0.68899  0.28149  Biso   1.000  H
  C97      1.0000 0.49180  0.79126  0.22848  Biso   1.000  C
  H95      1.0000 0.30844  0.46282  0.03591  Biso   1.000  H
  N67      1.0000 0.35402  0.54361  0.94913  Biso   1.000  N
  C98      1.0000 0.43904  0.58502  0.96488  Biso   1.000  C
  C99      1.0000 0.54591  0.61947  0.10131  Biso   1.000  C
  C100     1.0000 0.11843  0.53059  0.01938  Biso   1.000  C
  C101     1.0000 0.35092  0.87971  0.26411  Biso   1.000  C
  C102     1.0000 0.56511  0.75001  0.08663  Biso   1.000  C
  N68      1.0000 0.53382  0.80880  0.13544  Biso   1.000  N
  H96      1.0000 0.53382  0.81103  0.28149  Biso   1.000  H
  C103     1.0000 0.30761  0.53739  0.85608  Biso   1.000  C
  O33      1.0000 0.49361  0.60974  0.90368  Biso   1.000  O
  H97      1.0000 0.59905  0.61883  0.05172  Biso   1.000  H
  H98      1.0000 0.56889  0.58901  0.15460  Biso   1.000  H
  H99      1.0000 0.06530  0.52852  0.06897  Biso   1.000  H
  N69      1.0000 0.08843  0.58157  0.94785  Biso   1.000  N
  H100     1.0000 0.12267  0.48302  0.98953  Biso   1.000  H
  N70      1.0000 0.31857  0.92208  0.18246  Biso   1.000  N
  H101     1.0000 0.40602  0.90523  0.29731  Biso   1.000  H
  H102     1.0000 0.29363  0.87541  0.30913  Biso   1.000  H
  O34      1.0000 0.61545  0.75001  0.01247  Biso   1.000  O
  C104     1.0000 0.54591  0.88056  0.10131  Biso   1.000  C
  N71      1.0000 0.23150  0.59023  0.83585  Biso   1.000  N
  H103     1.0000 0.27647  0.48971  0.85060  Biso   1.000  H
  H104     1.0000 0.36120  0.54080  0.80700  Biso   1.000  H
  C105     1.0000 0.03522  0.64301  0.96993  Biso   1.000  C
  C106     1.0000 0.12357  0.58114  0.85017  Biso   1.000  C
  C107     1.0000 0.21918  0.92324  0.15382  Biso   1.000  C
  C108     1.0000 0.38531  0.95604  0.11492  Biso   1.000  C
  N72      1.0000 0.45318  0.91043  0.06170  Biso   1.000  N
  H105     1.0000 0.59905  0.88120  0.05172  Biso   1.000  H
  H106     1.0000 0.56889  0.91102  0.15460  Biso   1.000  H
  C109     1.0000 0.25274  0.64891  0.77921  Biso   1.000  C
  O35      1.0000 0.99206  0.65428  0.04510  Biso   1.000  O
  N73      1.0000 0.03530  0.68554  0.89092  Biso   1.000  N
  C110     1.0000 0.07770  0.65072  0.80742  Biso   1.000  C
  H107     1.0000 0.09818  0.53830  0.81547  Biso   1.000  H
  N74      1.0000 0.21457  0.95365  0.06483  Biso   1.000  N
  O36      1.0000 0.14663  0.90379  0.20063  Biso   1.000  O
  C111     1.0000 0.31101  0.98411  0.03648  Biso   1.000  C
  H108     1.0000 0.42295  0.99612  0.14527  Biso   1.000  H
  C112     1.0000 0.43904  0.91501  0.96488  Biso   1.000  C
  O37      1.0000 0.33595  0.66321  0.74772  Biso   1.000  O
  N75      1.0000 0.16454  0.68538  0.76532  Biso   1.000  N
  C113     1.0000 0.97513  0.75001  0.88458  Biso   1.000  C
  H109     1.0000 0.02456  0.64009  0.75876  Biso   1.000  H
  C114     1.0000 0.11843  0.96944  0.01938  Biso   1.000  C
  N76      1.0000 0.35402  0.95641  0.94913  Biso   1.000  N
  H110     1.0000 0.30844  0.03721  0.03591  Biso   1.000  H
  O38      1.0000 0.49361  0.89029  0.90368  Biso   1.000  O
  C115     1.0000 0.16053  0.75001  0.70868  Biso   1.000  C
  H111     1.0000 0.92457  0.75001  0.93673  Biso   1.000  H
  H112     1.0000 0.93780  0.75001  0.82353  Biso   1.000  H
  N77      1.0000 0.03530  0.81449  0.89092  Biso   1.000  N
  N78      1.0000 0.08843  0.91846  0.94785  Biso   1.000  N
  H113     1.0000 0.06530  0.97151  0.06897  Biso   1.000  H
  H114     1.0000 0.12267  0.01701  0.98953  Biso   1.000  H
  C116     1.0000 0.30761  0.96263  0.85608  Biso   1.000  C
  H115     1.0000 0.21782  0.75001  0.66329  Biso   1.000  H
  H116     1.0000 0.09720  0.75001  0.67113  Biso   1.000  H
  N79      1.0000 0.16454  0.81465  0.76532  Biso   1.000  N
  C117     1.0000 0.03522  0.85701  0.96993  Biso   1.000  C
  C118     1.0000 0.07770  0.84931  0.80742  Biso   1.000  C
  C119     1.0000 0.12357  0.91889  0.85017  Biso   1.000  C
  N80      1.0000 0.23150  0.90980  0.83585  Biso   1.000  N
  H117     1.0000 0.36120  0.95923  0.80700  Biso   1.000  H
  H118     1.0000 0.27647  0.01031  0.85060  Biso   1.000  H
  C120     1.0000 0.25274  0.85111  0.77921  Biso   1.000  C
  O39      1.0000 0.99206  0.84574  0.04510  Biso   1.000  O
  H119     1.0000 0.02456  0.85994  0.75876  Biso   1.000  H
  H120     1.0000 0.09818  0.96173  0.81547  Biso   1.000  H
  O40      1.0000 0.33595  0.83681  0.74772  Biso   1.000  O
  Ne1      1.0000 0.22180  0.25000  0.50758  Biso   1.000  Ne
  He1      1.0000 0.39855  0.25001  0.63629  Biso   1.000  He
  He2      1.0000 0.04023  0.25001  0.35522  Biso   1.000  He
  Ar1      1.0000 0.22369  0.25001  0.49884  Biso   1.000  Ar
  Ne2      1.0000 0.27821  0.75001  0.00758  Biso   1.000  Ne
  He3      1.0000 0.07934  0.75001  0.15724  Biso   1.000  He
  He4      1.0000 0.46148  0.75001  0.85369  Biso   1.000  He
  Ar2      1.0000 0.27633  0.75001  0.99885  Biso   1.000  Ar
  Ne3      1.0000 0.77823  0.75001  0.49243  Biso   1.000  Ne
  He5      1.0000 0.96071  0.75001  0.64564  Biso   1.000  He
  He6      1.0000 0.60043  0.75001  0.36268  Biso   1.000  He
  Ar3      1.0000 0.77635  0.75001  0.50115  Biso   1.000  Ar
  Ne4      1.0000 0.72182  0.25000  0.99243  Biso   1.000  Ne
  He7      1.0000 0.53758  0.25001  0.14719  Biso   1.000  He
  He8      1.0000 0.91948  0.25002  0.84390  Biso   1.000  He
  Ar4      1.0000 0.72370  0.24999  0.00119  Biso   1.000  Ar
