data_image0
_cell_length_a       15.58
_cell_length_b       27.514
_cell_length_c       9.207
_cell_angle_alpha    90
_cell_angle_beta     92.22
_cell_angle_gamma    90

_symmetry_space_group_name_H-M    "P 1"
_symmetry_int_tables_number       1

loop_
  _symmetry_equiv_pos_as_xyz
  'x, y, z'

loop_
  _atom_site_label
  _atom_site_occupancy
  _atom_site_fract_x
  _atom_site_fract_y
  _atom_site_fract_z
  _atom_site_thermal_displace_type
  _atom_site_B_iso_or_equiv
  _atom_site_type_symbol
  C1       1.0000 0.66566  0.52101  0.34184  Biso   1.000  C
  C2       1.0000 0.76108  0.51559  0.35782  Biso   1.000  C
  H1       1.0000 0.65046  0.53558  0.24706  Biso   1.000  H
  H2       1.0000 0.64548  0.54209  0.41934  Biso   1.000  H
  H3       1.0000 0.63859  0.48899  0.34847  Biso   1.000  H
  H4       1.0000 0.77600  0.50160  0.45467  Biso   1.000  H
  H5       1.0000 0.78049  0.49251  0.28348  Biso   1.000  H
  N1       1.0000 0.80675  0.56168  0.34250  Biso   1.000  N
  C3       1.0000 0.82331  0.57767  0.19674  Biso   1.000  C
  C4       1.0000 0.84698  0.58221  0.45956  Biso   1.000  C
  C5       1.0000 0.89069  0.55775  0.12337  Biso   1.000  C
  C6       1.0000 0.77018  0.61234  0.13000  Biso   1.000  C
  C7       1.0000 0.90560  0.62434  0.42673  Biso   1.000  C
  O1       1.0000 0.83778  0.56818  0.58478  Biso   1.000  O
  H6       1.0000 0.92482  0.53271  0.16728  Biso   1.000  H
  C8       1.0000 0.90823  0.57429  0.98641  Biso   1.000  C
  H7       1.0000 0.72292  0.62510  0.17967  Biso   1.000  H
  C9       1.0000 0.78649  0.62833  0.99033  Biso   1.000  C
  C10      1.0000 0.87579  0.67159  0.41717  Biso   1.000  C
  C11      1.0000 0.99288  0.61434  0.40967  Biso   1.000  C
  C12      1.0000 0.85640  0.60983  0.91804  Biso   1.000  C
  C13      1.0000 0.97532  0.54885  0.90054  Biso   1.000  C
  N2       1.0000 0.72619  0.66010  0.91587  Biso   1.000  N
  C14      1.0000 0.93107  0.70891  0.37869  Biso   1.000  C
  H8       1.0000 0.81770  0.67860  0.43684  Biso   1.000  H
  H9       1.0000 0.01449  0.58229  0.42250  Biso   1.000  H
  C15      1.0000 0.04776  0.65218  0.37326  Biso   1.000  C
  H10      1.0000 0.86881  0.62121  0.82370  Biso   1.000  H
  O2       1.0000 0.97099  0.50480  0.88239  Biso   1.000  O
  N3       1.0000 0.03572  0.57687  0.83620  Biso   1.000  N
  C16      1.0000 0.74770  0.70459  0.86598  Biso   1.000  C
  C17      1.0000 0.64480  0.63847  0.86261  Biso   1.000  C
  C18      1.0000 0.89998  0.76052  0.38587  Biso   1.000  C
  C19      1.0000 0.01640  0.69892  0.35478  Biso   1.000  C
  C20      1.0000 0.14226  0.64167  0.37130  Biso   1.000  C
  C21      1.0000 0.06771  0.62059  0.90457  Biso   1.000  C
  C22      1.0000 0.09268  0.55285  0.73348  Biso   1.000  C
  C23      1.0000 0.82927  0.72734  0.92435  Biso   1.000  C
  O3       1.0000 0.70022  0.72690  0.77989  Biso   1.000  O
  H11      1.0000 0.59992  0.66399  0.85924  Biso   1.000  H
  H12      1.0000 0.62727  0.61322  0.93217  Biso   1.000  H
  C24      1.0000 0.64963  0.61569  0.71207  Biso   1.000  C
  N4       1.0000 0.90885  0.78814  0.26619  Biso   1.000  N
  O4       1.0000 0.87478  0.77728  0.49923  Biso   1.000  O
  H13      1.0000 0.05348  0.72421  0.32576  Biso   1.000  H
  N5       1.0000 0.18467  0.65363  0.25011  Biso   1.000  N
  O5       1.0000 0.17985  0.62474  0.47978  Biso   1.000  O
  C25      1.0000 0.07058  0.66417  0.82805  Biso   1.000  C
  C26      1.0000 0.10202  0.61739  0.04630  Biso   1.000  C
  H14      1.0000 0.11761  0.57781  0.67033  Biso   1.000  H
  H15      1.0000 0.05799  0.53049  0.67055  Biso   1.000  H
  C27      1.0000 0.16452  0.52461  0.80728  Biso   1.000  C
  C28      1.0000 0.83498  0.74173  0.07000  Biso   1.000  C
  C29      1.0000 0.89449  0.73846  0.82924  Biso   1.000  C
  H16      1.0000 0.69568  0.59141  0.71315  Biso   1.000  H
  H17      1.0000 0.66161  0.64098  0.64076  Biso   1.000  H
  H18      1.0000 0.59479  0.59999  0.68566  Biso   1.000  H
  C30      1.0000 0.90559  0.76812  0.12065  Biso   1.000  C
  C31      1.0000 0.89946  0.84190  0.28185  Biso   1.000  C
  C32      1.0000 0.14158  0.65825  0.10891  Biso   1.000  C
  C33      1.0000 0.27930  0.65109  0.25098  Biso   1.000  C
  C34      1.0000 0.11021  0.70437  0.89348  Biso   1.000  C
  H19      1.0000 0.04593  0.66639  0.73239  Biso   1.000  H
  H20      1.0000 0.09849  0.58788  0.09946  Biso   1.000  H
  H21      1.0000 0.14061  0.49749  0.86196  Biso   1.000  H
  H22      1.0000 0.19731  0.54601  0.87413  Biso   1.000  H
  H23      1.0000 0.20251  0.51181  0.73413  Biso   1.000  H
  H24      1.0000 0.79080  0.73341  0.13359  Biso   1.000  H
  H25      1.0000 0.88989  0.72948  0.72957  Biso   1.000  H
  C35      1.0000 0.96580  0.76296  0.88554  Biso   1.000  C
  C36      1.0000 0.97222  0.77800  0.02848  Biso   1.000  C
  H26      1.0000 0.92107  0.85269  0.37924  Biso   1.000  H
  H27      1.0000 0.93209  0.85909  0.20717  Biso   1.000  H
  C37      1.0000 0.81090  0.85171  0.26326  Biso   1.000  C
  C38      1.0000 0.14822  0.70153  0.03174  Biso   1.000  C
  H28      1.0000 0.30297  0.65621  0.35108  Biso   1.000  H
  H29      1.0000 0.30156  0.67718  0.18869  Biso   1.000  H
  C39      1.0000 0.30819  0.60191  0.19532  Biso   1.000  C
  C40      1.0000 0.11249  0.75162  0.81381  Biso   1.000  C
  N6       1.0000 0.03589  0.77404  0.79294  Biso   1.000  N
  H30      1.0000 0.02181  0.79501  0.06391  Biso   1.000  H
  H31      1.0000 0.78027  0.83721  0.34358  Biso   1.000  H
  H32      1.0000 0.78922  0.83761  0.17098  Biso   1.000  H
  H33      1.0000 0.80150  0.88689  0.26195  Biso   1.000  H
  H34      1.0000 0.17818  0.72861  0.07304  Biso   1.000  H
  H35      1.0000 0.28828  0.59791  0.09380  Biso   1.000  H
  H36      1.0000 0.28387  0.57600  0.25435  Biso   1.000  H
  H37      1.0000 0.37106  0.59999  0.20206  Biso   1.000  H
  O6       1.0000 0.17960  0.76997  0.77315  Biso   1.000  O
  C41      1.0000 0.03051  0.81944  0.70946  Biso   1.000  C
  H38      1.0000 0.97303  0.82162  0.66033  Biso   1.000  H
  H39      1.0000 0.07363  0.81849  0.63326  Biso   1.000  H
  C42      1.0000 0.04547  0.86440  0.80207  Biso   1.000  C
  H40      1.0000 0.10320  0.86309  0.84804  Biso   1.000  H
  H41      1.0000 0.00271  0.86570  0.87718  Biso   1.000  H
  H42      1.0000 0.04021  0.89340  0.74065  Biso   1.000  H
  C43      1.0000 0.64959  0.38431  0.21206  Biso   1.000  C
  C44      1.0000 0.64476  0.36153  0.36261  Biso   1.000  C
  H43      1.0000 0.69570  0.40859  0.21326  Biso   1.000  H
  H44      1.0000 0.66157  0.35902  0.14076  Biso   1.000  H
  H45      1.0000 0.59482  0.40001  0.18576  Biso   1.000  H
  H46      1.0000 0.59988  0.33601  0.35934  Biso   1.000  H
  H47      1.0000 0.62729  0.38678  0.43217  Biso   1.000  H
  N7       1.0000 0.72621  0.33990  0.41587  Biso   1.000  N
  C45      1.0000 0.78645  0.37167  0.49032  Biso   1.000  C
  C46      1.0000 0.74766  0.29541  0.36597  Biso   1.000  C
  C47      1.0000 0.85636  0.39017  0.41804  Biso   1.000  C
  C48      1.0000 0.77020  0.38766  0.62999  Biso   1.000  C
  C49      1.0000 0.82929  0.27266  0.42434  Biso   1.000  C
  O7       1.0000 0.70018  0.27310  0.27989  Biso   1.000  O
  C50      1.0000 0.90818  0.42571  0.48641  Biso   1.000  C
  H48      1.0000 0.86877  0.37879  0.32369  Biso   1.000  H
  C51      1.0000 0.82327  0.42233  0.69673  Biso   1.000  C
  H49      1.0000 0.72288  0.37490  0.67978  Biso   1.000  H
  C52      1.0000 0.83500  0.25827  0.56999  Biso   1.000  C
  C53      1.0000 0.89451  0.26154  0.32924  Biso   1.000  C
  C54      1.0000 0.89065  0.44225  0.62347  Biso   1.000  C
  C55      1.0000 0.97528  0.45115  0.40054  Biso   1.000  C
  N8       1.0000 0.80677  0.43832  0.84249  Biso   1.000  N
  C56      1.0000 0.90554  0.23188  0.62075  Biso   1.000  C
  H50      1.0000 0.79076  0.26659  0.63358  Biso   1.000  H
  H51      1.0000 0.88991  0.27052  0.22956  Biso   1.000  H
  C57      1.0000 0.96576  0.23704  0.38565  Biso   1.000  C
  H52      1.0000 0.92477  0.46729  0.66728  Biso   1.000  H
  O8       1.0000 0.97095  0.49520  0.38239  Biso   1.000  O
  N9       1.0000 0.03568  0.42313  0.33619  Biso   1.000  N
  C58      1.0000 0.84693  0.41779  0.95956  Biso   1.000  C
  C59      1.0000 0.76104  0.48441  0.85782  Biso   1.000  C
  C60      1.0000 0.97217  0.22200  0.52847  Biso   1.000  C
  N10      1.0000 0.90887  0.21186  0.76619  Biso   1.000  N
  N11      1.0000 0.03591  0.22596  0.29293  Biso   1.000  N
  C61      1.0000 0.06767  0.37941  0.40467  Biso   1.000  C
  C62      1.0000 0.09270  0.44715  0.23348  Biso   1.000  C
  C63      1.0000 0.90555  0.37566  0.92673  Biso   1.000  C
  O9       1.0000 0.83774  0.43182  0.08488  Biso   1.000  O
  H53      1.0000 0.77596  0.49840  0.95466  Biso   1.000  H
  H54      1.0000 0.78045  0.50749  0.78358  Biso   1.000  H
  C64      1.0000 0.66568  0.47899  0.84184  Biso   1.000  C
  H55      1.0000 0.02177  0.20499  0.56391  Biso   1.000  H
  C65      1.0000 0.89993  0.23948  0.88586  Biso   1.000  C
  C66      1.0000 0.89948  0.15810  0.78184  Biso   1.000  C
  C67      1.0000 0.11251  0.24838  0.31380  Biso   1.000  C
  C68      1.0000 0.03047  0.18056  0.20945  Biso   1.000  C
  C69      1.0000 0.07061  0.33583  0.32815  Biso   1.000  C
  C70      1.0000 0.10198  0.38261  0.54630  Biso   1.000  C
  H56      1.0000 0.11757  0.42219  0.17032  Biso   1.000  H
  H57      1.0000 0.05801  0.46951  0.17065  Biso   1.000  H
  C71      1.0000 0.16448  0.47539  0.30728  Biso   1.000  C
  C72      1.0000 0.87575  0.32841  0.91727  Biso   1.000  C
  C73      1.0000 0.99284  0.38566  0.90967  Biso   1.000  C
  H58      1.0000 0.65048  0.46442  0.74717  Biso   1.000  H
  H59      1.0000 0.64544  0.45791  0.91934  Biso   1.000  H
  H60      1.0000 0.63855  0.51101  0.84858  Biso   1.000  H
  C74      1.0000 0.93103  0.29109  0.87869  Biso   1.000  C
  O10      1.0000 0.87474  0.22272  0.99923  Biso   1.000  O
  H61      1.0000 0.92109  0.14731  0.87923  Biso   1.000  H
  H62      1.0000 0.93204  0.14091  0.70728  Biso   1.000  H
  C75      1.0000 0.81086  0.14829  0.76325  Biso   1.000  C
  C76      1.0000 0.11016  0.29563  0.39347  Biso   1.000  C
  O11      1.0000 0.17955  0.23003  0.27326  Biso   1.000  O
  H63      1.0000 0.97299  0.17838  0.16032  Biso   1.000  H
  H64      1.0000 0.07359  0.18151  0.13326  Biso   1.000  H
  C77      1.0000 0.04549  0.13560  0.30206  Biso   1.000  C
  H65      1.0000 0.04588  0.33361  0.23239  Biso   1.000  H
  C78      1.0000 0.14154  0.34175  0.60891  Biso   1.000  C
  H66      1.0000 0.09845  0.41212  0.59945  Biso   1.000  H
  H67      1.0000 0.14057  0.50251  0.36206  Biso   1.000  H
  H68      1.0000 0.19727  0.45399  0.37413  Biso   1.000  H
  H69      1.0000 0.20247  0.48819  0.23413  Biso   1.000  H
  H70      1.0000 0.81766  0.32140  0.93684  Biso   1.000  H
  H71      1.0000 0.01444  0.41771  0.92249  Biso   1.000  H
  C79      1.0000 0.04778  0.34782  0.87325  Biso   1.000  C
  C80      1.0000 0.01636  0.30108  0.85488  Biso   1.000  C
  H72      1.0000 0.78029  0.16279  0.84369  Biso   1.000  H
  H73      1.0000 0.78917  0.16239  0.67108  Biso   1.000  H
  H74      1.0000 0.80146  0.11311  0.76195  Biso   1.000  H
  C81      1.0000 0.14818  0.29847  0.53173  Biso   1.000  C
  H75      1.0000 0.10316  0.13691  0.34815  Biso   1.000  H
  H76      1.0000 0.00266  0.13430  0.37717  Biso   1.000  H
  H77      1.0000 0.04017  0.10660  0.24076  Biso   1.000  H
  N12      1.0000 0.18463  0.34637  0.75010  Biso   1.000  N
  C82      1.0000 0.14228  0.35833  0.87130  Biso   1.000  C
  H78      1.0000 0.05343  0.27579  0.82575  Biso   1.000  H
  H79      1.0000 0.17820  0.27139  0.57304  Biso   1.000  H
  C83      1.0000 0.27926  0.34891  0.75108  Biso   1.000  C
  O12      1.0000 0.17988  0.37526  0.97988  Biso   1.000  O
  H80      1.0000 0.30299  0.34379  0.85119  Biso   1.000  H
  H81      1.0000 0.30158  0.32282  0.68869  Biso   1.000  H
  C84      1.0000 0.30815  0.39809  0.69532  Biso   1.000  C
  H82      1.0000 0.28824  0.40209  0.59380  Biso   1.000  H
  H83      1.0000 0.28389  0.42400  0.75434  Biso   1.000  H
  H84      1.0000 0.37108  0.40001  0.70217  Biso   1.000  H
  C85      1.0000 0.54549  0.63560  0.30206  Biso   1.000  C
  C86      1.0000 0.53047  0.68056  0.20945  Biso   1.000  C
  H85      1.0000 0.60316  0.63691  0.34815  Biso   1.000  H
  H86      1.0000 0.50266  0.63430  0.37717  Biso   1.000  H
  H87      1.0000 0.54017  0.60660  0.24076  Biso   1.000  H
  H88      1.0000 0.47299  0.67838  0.16032  Biso   1.000  H
  H89      1.0000 0.57359  0.68151  0.13326  Biso   1.000  H
  N13      1.0000 0.53591  0.72596  0.29293  Biso   1.000  N
  C87      1.0000 0.46576  0.73704  0.38565  Biso   1.000  C
  C88      1.0000 0.61251  0.74838  0.31380  Biso   1.000  C
  C89      1.0000 0.39451  0.76154  0.32924  Biso   1.000  C
  C90      1.0000 0.47217  0.72200  0.52847  Biso   1.000  C
  C91      1.0000 0.61016  0.79563  0.39347  Biso   1.000  C
  O13      1.0000 0.67955  0.73003  0.27326  Biso   1.000  O
  C92      1.0000 0.32929  0.77266  0.42434  Biso   1.000  C
  H90      1.0000 0.38991  0.77052  0.22956  Biso   1.000  H
  C93      1.0000 0.40554  0.73188  0.62075  Biso   1.000  C
  H91      1.0000 0.52177  0.70499  0.56391  Biso   1.000  H
  C94      1.0000 0.64818  0.79847  0.53173  Biso   1.000  C
  C95      1.0000 0.57061  0.83583  0.32815  Biso   1.000  C
  C96      1.0000 0.33500  0.75827  0.56999  Biso   1.000  C
  C97      1.0000 0.24766  0.79541  0.36597  Biso   1.000  C
  N14      1.0000 0.40887  0.71186  0.76619  Biso   1.000  N
  C98      1.0000 0.64160  0.84175  0.60891  Biso   1.000  C
  H92      1.0000 0.67820  0.77139  0.57304  Biso   1.000  H
  H93      1.0000 0.54588  0.83361  0.23239  Biso   1.000  H
  C99      1.0000 0.56767  0.87941  0.40467  Biso   1.000  C
  H94      1.0000 0.29076  0.76659  0.63358  Biso   1.000  H
  N15      1.0000 0.22621  0.83990  0.41587  Biso   1.000  N
  O14      1.0000 0.20018  0.77310  0.27989  Biso   1.000  O
  C100     1.0000 0.39993  0.73948  0.88586  Biso   1.000  C
  C101     1.0000 0.39948  0.65810  0.78184  Biso   1.000  C
  C102     1.0000 0.60198  0.88261  0.54630  Biso   1.000  C
  N16      1.0000 0.68469  0.84637  0.75010  Biso   1.000  N
  N17      1.0000 0.53568  0.92313  0.33619  Biso   1.000  N
  C103     1.0000 0.28645  0.87167  0.49032  Biso   1.000  C
  C104     1.0000 0.14476  0.86153  0.36261  Biso   1.000  C
  C105     1.0000 0.43109  0.79109  0.87869  Biso   1.000  C
  O15      1.0000 0.37474  0.72272  0.99923  Biso   1.000  O
  H95      1.0000 0.42109  0.64731  0.87923  Biso   1.000  H
  H96      1.0000 0.43204  0.64091  0.70728  Biso   1.000  H
  C106     1.0000 0.31086  0.64829  0.76325  Biso   1.000  C
  H97      1.0000 0.59845  0.91212  0.59945  Biso   1.000  H
  C107     1.0000 0.64228  0.85833  0.87130  Biso   1.000  C
  C108     1.0000 0.77926  0.84891  0.75108  Biso   1.000  C
  C109     1.0000 0.47528  0.95115  0.40054  Biso   1.000  C
  C110     1.0000 0.59270  0.94715  0.23348  Biso   1.000  C
  C111     1.0000 0.35636  0.89017  0.41804  Biso   1.000  C
  C112     1.0000 0.27020  0.88766  0.62999  Biso   1.000  C
  H98      1.0000 0.09988  0.83601  0.35934  Biso   1.000  H
  H99      1.0000 0.12729  0.88678  0.43217  Biso   1.000  H
  C113     1.0000 0.14959  0.88431  0.21206  Biso   1.000  C
  C114     1.0000 0.37575  0.82841  0.91727  Biso   1.000  C
  C115     1.0000 0.51636  0.80108  0.85488  Biso   1.000  C
  H100     1.0000 0.28029  0.66279  0.84369  Biso   1.000  H
  H101     1.0000 0.28917  0.66239  0.67108  Biso   1.000  H
  H102     1.0000 0.30146  0.61311  0.76195  Biso   1.000  H
  C116     1.0000 0.54778  0.84782  0.87325  Biso   1.000  C
  O16      1.0000 0.67988  0.87526  0.97988  Biso   1.000  O
  H103     1.0000 0.80299  0.84379  0.85119  Biso   1.000  H
  H104     1.0000 0.80158  0.82282  0.68869  Biso   1.000  H
  C117     1.0000 0.80815  0.89809  0.69532  Biso   1.000  C
  C118     1.0000 0.40818  0.92571  0.48641  Biso   1.000  C
  O17      1.0000 0.47095  0.99520  0.38239  Biso   1.000  O
  H105     1.0000 0.61757  0.92219  0.17032  Biso   1.000  H
  H106     1.0000 0.55801  0.96951  0.17065  Biso   1.000  H
  C119     1.0000 0.66448  0.97539  0.30728  Biso   1.000  C
  H107     1.0000 0.36877  0.87879  0.32369  Biso   1.000  H
  C120     1.0000 0.32327  0.92233  0.69673  Biso   1.000  C
  H108     1.0000 0.22288  0.87490  0.67978  Biso   1.000  H
  H109     1.0000 0.19570  0.90859  0.21326  Biso   1.000  H
  H110     1.0000 0.16157  0.85902  0.14076  Biso   1.000  H
  H111     1.0000 0.09482  0.90001  0.18576  Biso   1.000  H
  H112     1.0000 0.31766  0.82140  0.93684  Biso   1.000  H
  C121     1.0000 0.40555  0.87566  0.92673  Biso   1.000  C
  H113     1.0000 0.55343  0.77579  0.82575  Biso   1.000  H
  C122     1.0000 0.49284  0.88566  0.90967  Biso   1.000  C
  H114     1.0000 0.78824  0.90209  0.59380  Biso   1.000  H
  H115     1.0000 0.78389  0.92400  0.75434  Biso   1.000  H
  H116     1.0000 0.87108  0.90001  0.70217  Biso   1.000  H
  C123     1.0000 0.39065  0.94225  0.62347  Biso   1.000  C
  H117     1.0000 0.69727  0.95399  0.37413  Biso   1.000  H
  H118     1.0000 0.70247  0.98819  0.23413  Biso   1.000  H
  H119     1.0000 0.64057  0.00251  0.36206  Biso   1.000  H
  N18      1.0000 0.30677  0.93832  0.84249  Biso   1.000  N
  C124     1.0000 0.34693  0.91779  0.95956  Biso   1.000  C
  H120     1.0000 0.51444  0.91771  0.92249  Biso   1.000  H
  H121     1.0000 0.42477  0.96729  0.66728  Biso   1.000  H
  C125     1.0000 0.26104  0.98441  0.85782  Biso   1.000  C
  O18      1.0000 0.33774  0.93182  0.08488  Biso   1.000  O
  H122     1.0000 0.27596  0.99840  0.95466  Biso   1.000  H
  C126     1.0000 0.16568  0.97899  0.84184  Biso   1.000  C
  H123     1.0000 0.28045  0.00749  0.78358  Biso   1.000  H
  H124     1.0000 0.15048  0.96442  0.74717  Biso   1.000  H
  H125     1.0000 0.14544  0.95791  0.91934  Biso   1.000  H
  H126     1.0000 0.13855  0.01101  0.84858  Biso   1.000  H
  C127     1.0000 0.39946  0.34190  0.28185  Biso   1.000  C
  N19      1.0000 0.40892  0.28814  0.26619  Biso   1.000  N
  H127     1.0000 0.42107  0.35269  0.37924  Biso   1.000  H
  H128     1.0000 0.43209  0.35909  0.20717  Biso   1.000  H
  C128     1.0000 0.31090  0.35171  0.26326  Biso   1.000  C
  C129     1.0000 0.40559  0.26812  0.12065  Biso   1.000  C
  C130     1.0000 0.39998  0.26052  0.38587  Biso   1.000  C
  H129     1.0000 0.28027  0.33721  0.34358  Biso   1.000  H
  H130     1.0000 0.28922  0.33761  0.17098  Biso   1.000  H
  H131     1.0000 0.30150  0.38689  0.26195  Biso   1.000  H
  C131     1.0000 0.33498  0.24173  0.07000  Biso   1.000  C
  C132     1.0000 0.47222  0.27800  0.02848  Biso   1.000  C
  C133     1.0000 0.43107  0.20891  0.37869  Biso   1.000  C
  O19      1.0000 0.37478  0.27728  0.49923  Biso   1.000  O
  H132     1.0000 0.29080  0.23341  0.13359  Biso   1.000  H
  C134     1.0000 0.32933  0.22734  0.92435  Biso   1.000  C
  H133     1.0000 0.52181  0.29501  0.06391  Biso   1.000  H
  C135     1.0000 0.46580  0.26296  0.88554  Biso   1.000  C
  C136     1.0000 0.37579  0.17159  0.41717  Biso   1.000  C
  C137     1.0000 0.51640  0.19892  0.35478  Biso   1.000  C
  C138     1.0000 0.39449  0.23846  0.82924  Biso   1.000  C
  C139     1.0000 0.24770  0.20459  0.86598  Biso   1.000  C
  N20      1.0000 0.53589  0.27404  0.79294  Biso   1.000  N
  H134     1.0000 0.31770  0.17860  0.43684  Biso   1.000  H
  C140     1.0000 0.40560  0.12434  0.42673  Biso   1.000  C
  C141     1.0000 0.54776  0.15218  0.37326  Biso   1.000  C
  H135     1.0000 0.55348  0.22421  0.32576  Biso   1.000  H
  H136     1.0000 0.38989  0.22948  0.72957  Biso   1.000  H
  N21      1.0000 0.22619  0.16010  0.91587  Biso   1.000  N
  O20      1.0000 0.20022  0.22690  0.77989  Biso   1.000  O
  C142     1.0000 0.61249  0.25162  0.81381  Biso   1.000  C
  C143     1.0000 0.53051  0.31944  0.70946  Biso   1.000  C
  C144     1.0000 0.49288  0.11434  0.40967  Biso   1.000  C
  C145     1.0000 0.34698  0.08221  0.45956  Biso   1.000  C
  C146     1.0000 0.64226  0.14167  0.37130  Biso   1.000  C
  C147     1.0000 0.28649  0.12833  0.99033  Biso   1.000  C
  C148     1.0000 0.14480  0.13847  0.86261  Biso   1.000  C
  C149     1.0000 0.61021  0.20437  0.89348  Biso   1.000  C
  O21      1.0000 0.67960  0.26997  0.77315  Biso   1.000  O
  H137     1.0000 0.47303  0.32162  0.66033  Biso   1.000  H
  H138     1.0000 0.57363  0.31849  0.63326  Biso   1.000  H
  C150     1.0000 0.54553  0.36440  0.80207  Biso   1.000  C
  H139     1.0000 0.51449  0.08229  0.42250  Biso   1.000  H
  N22      1.0000 0.30681  0.06168  0.34250  Biso   1.000  N
  O22      1.0000 0.33778  0.06818  0.58478  Biso   1.000  O
  N23      1.0000 0.68467  0.15363  0.25011  Biso   1.000  N
  O23      1.0000 0.67985  0.12474  0.47978  Biso   1.000  O
  C151     1.0000 0.27018  0.11234  0.13000  Biso   1.000  C
  C152     1.0000 0.35640  0.10983  0.91804  Biso   1.000  C
  H140     1.0000 0.09992  0.16399  0.85924  Biso   1.000  H
  H141     1.0000 0.12733  0.11322  0.93217  Biso   1.000  H
  C153     1.0000 0.14963  0.11569  0.71207  Biso   1.000  C
  C154     1.0000 0.64822  0.20153  0.03174  Biso   1.000  C
  C155     1.0000 0.57058  0.16417  0.82805  Biso   1.000  C
  H142     1.0000 0.60320  0.36309  0.84804  Biso   1.000  H
  H143     1.0000 0.50271  0.36570  0.87718  Biso   1.000  H
  H144     1.0000 0.54021  0.39340  0.74065  Biso   1.000  H
  C156     1.0000 0.32331  0.07767  0.19674  Biso   1.000  C
  C157     1.0000 0.26108  0.01559  0.35782  Biso   1.000  C
  C158     1.0000 0.64158  0.15825  0.10891  Biso   1.000  C
  C159     1.0000 0.77930  0.15109  0.25098  Biso   1.000  C
  H145     1.0000 0.22292  0.12510  0.17967  Biso   1.000  H
  C160     1.0000 0.40823  0.07429  0.98641  Biso   1.000  C
  H146     1.0000 0.36881  0.12121  0.82370  Biso   1.000  H
  H147     1.0000 0.19568  0.09141  0.71315  Biso   1.000  H
  H148     1.0000 0.16161  0.14098  0.64076  Biso   1.000  H
  H149     1.0000 0.09479  0.09999  0.68566  Biso   1.000  H
  H150     1.0000 0.67818  0.22861  0.07304  Biso   1.000  H
  H151     1.0000 0.54593  0.16639  0.73239  Biso   1.000  H
  C161     1.0000 0.56771  0.12059  0.90457  Biso   1.000  C
  C162     1.0000 0.39069  0.05775  0.12337  Biso   1.000  C
  H152     1.0000 0.27600  0.00160  0.45467  Biso   1.000  H
  C163     1.0000 0.16566  0.02101  0.34184  Biso   1.000  C
  H153     1.0000 0.28049  0.99251  0.28348  Biso   1.000  H
  C164     1.0000 0.60202  0.11739  0.04630  Biso   1.000  C
  H154     1.0000 0.80297  0.15621  0.35108  Biso   1.000  H
  H155     1.0000 0.80156  0.17718  0.18869  Biso   1.000  H
  C165     1.0000 0.80819  0.10191  0.19532  Biso   1.000  C
  C166     1.0000 0.47532  0.04885  0.90054  Biso   1.000  C
  N24      1.0000 0.53572  0.07687  0.83620  Biso   1.000  N
  H156     1.0000 0.42482  0.03271  0.16728  Biso   1.000  H
  H157     1.0000 0.15046  0.03558  0.24706  Biso   1.000  H
  H158     1.0000 0.14548  0.04209  0.41934  Biso   1.000  H
  H159     1.0000 0.13859  0.98899  0.34847  Biso   1.000  H
  H160     1.0000 0.59849  0.08788  0.09946  Biso   1.000  H
  H161     1.0000 0.78828  0.09791  0.09380  Biso   1.000  H
  H162     1.0000 0.78387  0.07600  0.25435  Biso   1.000  H
  H163     1.0000 0.87106  0.09999  0.20206  Biso   1.000  H
  O24      1.0000 0.47099  0.00480  0.88239  Biso   1.000  O
  C167     1.0000 0.59268  0.05285  0.73348  Biso   1.000  C
  H164     1.0000 0.61761  0.07781  0.67033  Biso   1.000  H
  H165     1.0000 0.55799  0.03049  0.67055  Biso   1.000  H
  C168     1.0000 0.66452  0.02461  0.80728  Biso   1.000  C
  H166     1.0000 0.64061  0.99749  0.86196  Biso   1.000  H
  H167     1.0000 0.69731  0.04601  0.87413  Biso   1.000  H
  H168     1.0000 0.70251  0.01181  0.73413  Biso   1.000  H
