data_image0
_cell_length_a       14.597
_cell_length_b       17.366
_cell_length_c       15.335
_cell_angle_alpha    90
_cell_angle_beta     91.59
_cell_angle_gamma    90

_symmetry_space_group_name_H-M    "P 1"
_symmetry_int_tables_number       1

loop_
  _symmetry_equiv_pos_as_xyz
  'x, y, z'

loop_
  _atom_site_label
  _atom_site_occupancy
  _atom_site_fract_x
  _atom_site_fract_y
  _atom_site_fract_z
  _atom_site_thermal_displace_type
  _atom_site_B_iso_or_equiv
  _atom_site_type_symbol
  C1       1.0000 0.46021  0.60480  0.51621  Biso   1.000  C
  C2       1.0000 0.39196  0.64834  0.47576  Biso   1.000  C
  C3       1.0000 0.52469  0.63981  0.57081  Biso   1.000  C
  H1       1.0000 0.46266  0.55090  0.50649  Biso   1.000  H
  N1       1.0000 0.32581  0.60993  0.42031  Biso   1.000  N
  C4       1.0000 0.38642  0.72602  0.49246  Biso   1.000  C
  C5       1.0000 0.51808  0.71859  0.58627  Biso   1.000  C
  C6       1.0000 0.59322  0.59231  0.62091  Biso   1.000  C
  C7       1.0000 0.34596  0.58833  0.33851  Biso   1.000  C
  C8       1.0000 0.24957  0.57140  0.46519  Biso   1.000  C
  C9       1.0000 0.44880  0.76080  0.54778  Biso   1.000  C
  H2       1.0000 0.33891  0.75573  0.46545  Biso   1.000  H
  H3       1.0000 0.56199  0.74329  0.62365  Biso   1.000  H
  N2       1.0000 0.67968  0.58822  0.59279  Biso   1.000  N
  O1       1.0000 0.57148  0.55770  0.68615  Biso   1.000  O
  O2       1.0000 0.30141  0.54014  0.29760  Biso   1.000  O
  C10      1.0000 0.42436  0.62864  0.29708  Biso   1.000  C
  H4       1.0000 0.27517  0.52954  0.50218  Biso   1.000  H
  H5       1.0000 0.20792  0.54779  0.42077  Biso   1.000  H
  C11      1.0000 0.19543  0.62450  0.52090  Biso   1.000  C
  N3       1.0000 0.43988  0.84084  0.57081  Biso   1.000  N
  C12      1.0000 0.70809  0.62242  0.51229  Biso   1.000  C
  C13      1.0000 0.74898  0.54814  0.64596  Biso   1.000  C
  C14      1.0000 0.41497  0.70442  0.26857  Biso   1.000  C
  C15      1.0000 0.50477  0.58879  0.28221  Biso   1.000  C
  H6       1.0000 0.23548  0.64609  0.56696  Biso   1.000  H
  H7       1.0000 0.14543  0.59593  0.54719  Biso   1.000  H
  H8       1.0000 0.16992  0.66642  0.48476  Biso   1.000  H
  C16      1.0000 0.49642  0.89255  0.54341  Biso   1.000  C
  C17      1.0000 0.38452  0.85742  0.64818  Biso   1.000  C
  C18      1.0000 0.69500  0.58091  0.43460  Biso   1.000  C
  C19      1.0000 0.75391  0.69129  0.51425  Biso   1.000  C
  H9       1.0000 0.81040  0.56559  0.62861  Biso   1.000  H
  H10      1.0000 0.74160  0.56271  0.70780  Biso   1.000  H
  C20      1.0000 0.74480  0.46712  0.63898  Biso   1.000  C
  C21      1.0000 0.48607  0.74001  0.22617  Biso   1.000  C
  H11      1.0000 0.35982  0.73172  0.27816  Biso   1.000  H
  H12      1.0000 0.51128  0.53703  0.30132  Biso   1.000  H
  C22      1.0000 0.57566  0.62432  0.23948  Biso   1.000  C
  C23      1.0000 0.55436  0.87504  0.46539  Biso   1.000  C
  O3       1.0000 0.50540  0.95341  0.58131  Biso   1.000  O
  H13      1.0000 0.40477  0.82333  0.69665  Biso   1.000  H
  H14      1.0000 0.39561  0.91132  0.66671  Biso   1.000  H
  C24      1.0000 0.28661  0.84654  0.63135  Biso   1.000  C
  C25      1.0000 0.72826  0.61171  0.35827  Biso   1.000  C
  H15      1.0000 0.66388  0.53282  0.43408  Biso   1.000  H
  C26      1.0000 0.78717  0.72089  0.43786  Biso   1.000  C
  H16      1.0000 0.76266  0.71842  0.56768  Biso   1.000  H
  H17      1.0000 0.74232  0.45244  0.57727  Biso   1.000  H
  H18      1.0000 0.68980  0.44823  0.66736  Biso   1.000  H
  H19      1.0000 0.79941  0.44449  0.66749  Biso   1.000  H
  C27      1.0000 0.56657  0.69993  0.21188  Biso   1.000  C
  N4       1.0000 0.47472  0.81619  0.19160  Biso   1.000  N
  N5       1.0000 0.65539  0.58050  0.21789  Biso   1.000  N
  C28      1.0000 0.51479  0.87389  0.38156  Biso   1.000  C
  C29      1.0000 0.64756  0.86975  0.47576  Biso   1.000  C
  H20      1.0000 0.26723  0.87631  0.57988  Biso   1.000  H
  H21      1.0000 0.25280  0.86404  0.68197  Biso   1.000  H
  H22      1.0000 0.27398  0.79183  0.62098  Biso   1.000  H
  C30      1.0000 0.72467  0.56582  0.27490  Biso   1.000  C
  C31      1.0000 0.77417  0.68173  0.35847  Biso   1.000  C
  N6       1.0000 0.84066  0.79103  0.43982  Biso   1.000  N
  H23      1.0000 0.61546  0.72429  0.18299  Biso   1.000  H
  C32      1.0000 0.52787  0.87614  0.21932  Biso   1.000  C
  C33      1.0000 0.42327  0.82270  0.10699  Biso   1.000  C
  C34      1.0000 0.65562  0.54319  0.13171  Biso   1.000  C
  C35      1.0000 0.56930  0.86980  0.30798  Biso   1.000  C
  H24      1.0000 0.44998  0.87602  0.37439  Biso   1.000  H
  C36      1.0000 0.70339  0.86393  0.40270  Biso   1.000  C
  H25      1.0000 0.67478  0.86992  0.53278  Biso   1.000  H
  O4       1.0000 0.78506  0.51848  0.25964  Biso   1.000  O
  H26      1.0000 0.79641  0.70269  0.30589  Biso   1.000  H
  C37      1.0000 0.80530  0.86053  0.41581  Biso   1.000  C
  C38      1.0000 0.94057  0.78239  0.45476  Biso   1.000  C
  O5       1.0000 0.53921  0.93355  0.17359  Biso   1.000  O
  H27      1.0000 0.40336  0.87671  0.09838  Biso   1.000  H
  H28      1.0000 0.36776  0.79011  0.10862  Biso   1.000  H
  C39      1.0000 0.47940  0.79880  0.03229  Biso   1.000  C
  H29      1.0000 0.71950  0.54042  0.11188  Biso   1.000  H
  H30      1.0000 0.62041  0.57561  0.08957  Biso   1.000  H
  C40      1.0000 0.61531  0.46320  0.13099  Biso   1.000  C
  C41      1.0000 0.66370  0.86623  0.31959  Biso   1.000  C
  O6       1.0000 0.85210  0.91771  0.40446  Biso   1.000  O
  H31      1.0000 0.97071  0.83272  0.44530  Biso   1.000  H
  H32      1.0000 0.96460  0.74542  0.41190  Biso   1.000  H
  C42      1.0000 0.96438  0.75452  0.54537  Biso   1.000  C
  H33      1.0000 0.53541  0.82990  0.03151  Biso   1.000  H
  H34      1.0000 0.49568  0.74433  0.03849  Biso   1.000  H
  H35      1.0000 0.44424  0.80640  0.97769  Biso   1.000  H
  H36      1.0000 0.65437  0.42900  0.16661  Biso   1.000  H
  H37      1.0000 0.61151  0.44391  0.07098  Biso   1.000  H
  H38      1.0000 0.55381  0.46482  0.15500  Biso   1.000  H
  H39      1.0000 0.70158  0.86543  0.27021  Biso   1.000  H
  H40      1.0000 0.93699  0.78890  0.58810  Biso   1.000  H
  H41      1.0000 0.94048  0.70223  0.55287  Biso   1.000  H
  H42      1.0000 0.03109  0.75423  0.55431  Biso   1.000  H
  O7       1.0000 0.49456  0.45341  0.41868  Biso   1.000  O
  C43      1.0000 0.50362  0.39249  0.45658  Biso   1.000  C
  C44      1.0000 0.44560  0.37499  0.53460  Biso   1.000  C
  N7       1.0000 0.56009  0.34078  0.42918  Biso   1.000  N
  C45      1.0000 0.35240  0.36969  0.52417  Biso   1.000  C
  C46      1.0000 0.48518  0.37389  0.61837  Biso   1.000  C
  C47      1.0000 0.55117  0.26080  0.45221  Biso   1.000  C
  C48      1.0000 0.61552  0.35742  0.35181  Biso   1.000  C
  C49      1.0000 0.29658  0.36393  0.59730  Biso   1.000  C
  H43      1.0000 0.32519  0.36992  0.46722  Biso   1.000  H
  C50      1.0000 0.43067  0.36980  0.69195  Biso   1.000  C
  H44      1.0000 0.54999  0.37602  0.62561  Biso   1.000  H
  C51      1.0000 0.48188  0.21859  0.41366  Biso   1.000  C
  C52      1.0000 0.61361  0.22602  0.50747  Biso   1.000  C
  H45      1.0000 0.59519  0.32333  0.30328  Biso   1.000  H
  H46      1.0000 0.60436  0.41132  0.33329  Biso   1.000  H
  C53      1.0000 0.71342  0.34648  0.36858  Biso   1.000  C
  C54      1.0000 0.19467  0.36053  0.58418  Biso   1.000  C
  C55      1.0000 0.33627  0.36623  0.68041  Biso   1.000  C
  C56      1.0000 0.47210  0.37614  0.78067  Biso   1.000  C
  C57      1.0000 0.47528  0.13981  0.42918  Biso   1.000  C
  H47      1.0000 0.43797  0.24329  0.37628  Biso   1.000  H
  C58      1.0000 0.60800  0.14828  0.52417  Biso   1.000  C
  H48      1.0000 0.66112  0.25573  0.53447  Biso   1.000  H
  H49      1.0000 0.73281  0.37631  0.42012  Biso   1.000  H
  H50      1.0000 0.74716  0.36399  0.31796  Biso   1.000  H
  H51      1.0000 0.72599  0.29183  0.37902  Biso   1.000  H
  N8       1.0000 0.15930  0.29103  0.56018  Biso   1.000  N
  O8       1.0000 0.14786  0.41771  0.59547  Biso   1.000  O
  H52      1.0000 0.29839  0.36543  0.72979  Biso   1.000  H
  N9       1.0000 0.52531  0.31619  0.80840  Biso   1.000  N
  O9       1.0000 0.46082  0.43355  0.82640  Biso   1.000  O
  C59      1.0000 0.40682  0.09231  0.37908  Biso   1.000  C
  C60      1.0000 0.53983  0.10480  0.48379  Biso   1.000  C
  N10      1.0000 0.67422  0.10993  0.57968  Biso   1.000  N
  C61      1.0000 0.21279  0.22089  0.56207  Biso   1.000  C
  C62      1.0000 0.05939  0.28239  0.54517  Biso   1.000  C
  C63      1.0000 0.51389  0.24001  0.77376  Biso   1.000  C
  C64      1.0000 0.57669  0.32270  0.89294  Biso   1.000  C
  N11      1.0000 0.32029  0.08822  0.40720  Biso   1.000  N
  O10      1.0000 0.42848  0.05770  0.31378  Biso   1.000  O
  H53      1.0000 0.53730  0.05090  0.49351  Biso   1.000  H
  C65      1.0000 0.65400  0.08828  0.66149  Biso   1.000  C
  C66      1.0000 0.75040  0.07140  0.53480  Biso   1.000  C
  C67      1.0000 0.24612  0.19129  0.48568  Biso   1.000  C
  C68      1.0000 0.22580  0.18168  0.64146  Biso   1.000  C
  H54      1.0000 0.02932  0.33272  0.55470  Biso   1.000  H
  H55      1.0000 0.03537  0.24542  0.58810  Biso   1.000  H
  C69      1.0000 0.03558  0.25452  0.45456  Biso   1.000  C
  C70      1.0000 0.43340  0.19993  0.78804  Biso   1.000  C
  C71      1.0000 0.58500  0.20442  0.73135  Biso   1.000  C
  H56      1.0000 0.59660  0.37671  0.90155  Biso   1.000  H
  H57      1.0000 0.63220  0.29011  0.89138  Biso   1.000  H
  C72      1.0000 0.52057  0.29880  0.96764  Biso   1.000  C
  C73      1.0000 0.29188  0.12242  0.48770  Biso   1.000  C
  C74      1.0000 0.25098  0.04808  0.35397  Biso   1.000  C
  C75      1.0000 0.57560  0.12858  0.70285  Biso   1.000  C
  O11      1.0000 0.69856  0.04008  0.70232  Biso   1.000  O
  H58      1.0000 0.72479  0.02948  0.49781  Biso   1.000  H
  H59      1.0000 0.79211  0.04779  0.57916  Biso   1.000  H
  C76      1.0000 0.80461  0.12450  0.47909  Biso   1.000  C
  H60      1.0000 0.23731  0.21842  0.43232  Biso   1.000  H
  H61      1.0000 0.20363  0.20269  0.69410  Biso   1.000  H
  C77      1.0000 0.27170  0.11171  0.64166  Biso   1.000  C
  H62      1.0000 0.06298  0.28890  0.41190  Biso   1.000  H
  H63      1.0000 0.05948  0.20218  0.44706  Biso   1.000  H
  H64      1.0000 0.96887  0.25423  0.44569  Biso   1.000  H
  C78      1.0000 0.42430  0.12432  0.76045  Biso   1.000  C
  H65      1.0000 0.38450  0.22429  0.81694  Biso   1.000  H
  H66      1.0000 0.64021  0.23172  0.72176  Biso   1.000  H
  H67      1.0000 0.46462  0.32990  0.96849  Biso   1.000  H
  H68      1.0000 0.50429  0.24433  0.96144  Biso   1.000  H
  H69      1.0000 0.55573  0.30640  0.02224  Biso   1.000  H
  C79      1.0000 0.30497  0.08091  0.56540  Biso   1.000  C
  H70      1.0000 0.18963  0.06559  0.37139  Biso   1.000  H
  H71      1.0000 0.25836  0.06271  0.29219  Biso   1.000  H
  C80      1.0000 0.25523  0.96712  0.36101  Biso   1.000  C
  C81      1.0000 0.49520  0.08879  0.71779  Biso   1.000  C
  H72      1.0000 0.76449  0.14609  0.43297  Biso   1.000  H
  H73      1.0000 0.85460  0.09588  0.45280  Biso   1.000  H
  H74      1.0000 0.83012  0.16642  0.51516  Biso   1.000  H
  C82      1.0000 0.27530  0.06582  0.72509  Biso   1.000  C
  N12      1.0000 0.34457  0.08050  0.78204  Biso   1.000  N
  H75      1.0000 0.33608  0.03282  0.56585  Biso   1.000  H
  H76      1.0000 0.25771  0.95238  0.42266  Biso   1.000  H
  H77      1.0000 0.31017  0.94817  0.33257  Biso   1.000  H
  H78      1.0000 0.20062  0.94449  0.33250  Biso   1.000  H
  H79      1.0000 0.48868  0.03703  0.69867  Biso   1.000  H
  O12      1.0000 0.21491  0.01848  0.74036  Biso   1.000  O
  C83      1.0000 0.34442  0.04319  0.86828  Biso   1.000  C
  H80      1.0000 0.28053  0.04042  0.88805  Biso   1.000  H
  H81      1.0000 0.37962  0.07561  0.91036  Biso   1.000  H
  C84      1.0000 0.38472  0.96320  0.86900  Biso   1.000  C
  H82      1.0000 0.34559  0.92900  0.83338  Biso   1.000  H
  H83      1.0000 0.38852  0.94391  0.92895  Biso   1.000  H
  H84      1.0000 0.44623  0.96482  0.84499  Biso   1.000  H
  O13      1.0000 0.70997  0.79230  0.68726  Biso   1.000  O
  C85      1.0000 0.74376  0.82172  0.75347  Biso   1.000  C
  N13      1.0000 0.69517  0.83180  0.82595  Biso   1.000  N
  C86      1.0000 0.84159  0.84723  0.75588  Biso   1.000  C
  C87      1.0000 0.59960  0.80479  0.82588  Biso   1.000  C
  C88      1.0000 0.72957  0.87314  0.90136  Biso   1.000  C
  C89      1.0000 0.86527  0.91351  0.71061  Biso   1.000  C
  C90      1.0000 0.90840  0.80214  0.79646  Biso   1.000  C
  C91      1.0000 0.59420  0.72020  0.84747  Biso   1.000  C
  H85      1.0000 0.57057  0.81395  0.76769  Biso   1.000  H
  H86      1.0000 0.56517  0.83450  0.86920  Biso   1.000  H
  C92      1.0000 0.76650  0.83260  0.97207  Biso   1.000  C
  C93      1.0000 0.72049  0.95284  0.90488  Biso   1.000  C
  C94      1.0000 0.95566  0.93551  0.70696  Biso   1.000  C
  H87      1.0000 0.81902  0.94351  0.68210  Biso   1.000  H
  H88      1.0000 0.89201  0.75775  0.82869  Biso   1.000  H
  C95      1.0000 0.00027  0.82305  0.78948  Biso   1.000  C
  H89      1.0000 0.62280  0.69020  0.80135  Biso   1.000  H
  H90      1.0000 0.52979  0.70500  0.85165  Biso   1.000  H
  H91      1.0000 0.62652  0.71041  0.90325  Biso   1.000  H
  H92      1.0000 0.77178  0.77813  0.96999  Biso   1.000  H
  C96      1.0000 0.79572  0.87343  0.04605  Biso   1.000  C
  C97      1.0000 0.74721  0.99211  0.98010  Biso   1.000  C
  H93      1.0000 0.69611  0.98025  0.85589  Biso   1.000  H
  N14      1.0000 0.97960  0.00282  0.65868  Biso   1.000  N
  C98      1.0000 0.02420  0.88984  0.74545  Biso   1.000  C
  N15      1.0000 0.07180  0.77289  0.82268  Biso   1.000  N
  C99      1.0000 0.78505  0.95301  0.05146  Biso   1.000  C
  C100     1.0000 0.83514  0.82834  0.12238  Biso   1.000  C
  N16      1.0000 0.73042  0.07405  0.98466  Biso   1.000  N
  C101     1.0000 0.99087  0.99430  0.56337  Biso   1.000  C
  C102     1.0000 0.99577  0.07221  0.69626  Biso   1.000  C
  H94      1.0000 0.08677  0.90424  0.74166  Biso   1.000  H
  C103     1.0000 0.12695  0.79345  0.89105  Biso   1.000  C
  C104     1.0000 0.10077  0.70920  0.76358  Biso   1.000  C
  H95      1.0000 0.80320  0.98013  0.10294  Biso   1.000  H
  N17      1.0000 0.92694  0.83520  0.13888  Biso   1.000  N
  O14      1.0000 0.78514  0.78792  0.16732  Biso   1.000  O
  C105     1.0000 0.76776  0.12334  0.92589  Biso   1.000  C
  C106     1.0000 0.64841  0.09795  0.03124  Biso   1.000  C
  H96      1.0000 0.94021  0.96240  0.53891  Biso   1.000  H
  H97      1.0000 0.98657  0.04572  0.53571  Biso   1.000  H
  C107     1.0000 0.07976  0.95831  0.54106  Biso   1.000  C
  C108     1.0000 0.97510  0.07952  0.79104  Biso   1.000  C
  O15      1.0000 0.02279  0.12743  0.65496  Biso   1.000  O
  C109     1.0000 0.08751  0.84781  0.95498  Biso   1.000  C
  O16      1.0000 0.20460  0.76633  0.90377  Biso   1.000  O
  H98      1.0000 0.15712  0.68490  0.78830  Biso   1.000  H
  H99      1.0000 0.11539  0.73103  0.70598  Biso   1.000  H
  C110     1.0000 0.02718  0.64834  0.75158  Biso   1.000  C
  C111     1.0000 0.96883  0.78913  0.21044  Biso   1.000  C
  C112     1.0000 0.98829  0.86692  0.07665  Biso   1.000  C
  C113     1.0000 0.86346  0.10325  0.89979  Biso   1.000  C
  O17      1.0000 0.73079  0.18254  0.90077  Biso   1.000  O
  C114     1.0000 0.56032  0.07423  0.98695  Biso   1.000  C
  H100     1.0000 0.64914  0.15461  0.03744  Biso   1.000  H
  H101     1.0000 0.65123  0.07543  0.09054  Biso   1.000  H
  H102     1.0000 0.13037  0.99033  0.56389  Biso   1.000  H
  H103     1.0000 0.08359  0.95411  0.47759  Biso   1.000  H
  H104     1.0000 0.08401  0.90694  0.56716  Biso   1.000  H
  C115     1.0000 0.88519  0.09064  0.81329  Biso   1.000  C
  C116     1.0000 0.04456  0.08281  0.85426  Biso   1.000  C
  C117     1.0000 0.01838  0.82172  0.00887  Biso   1.000  C
  C118     1.0000 0.12491  0.92053  0.96894  Biso   1.000  C
  H105     1.0000 0.97382  0.67074  0.72098  Biso   1.000  H
  H106     1.0000 0.00926  0.62933  0.80879  Biso   1.000  H
  H107     1.0000 0.05105  0.60549  0.71726  Biso   1.000  H
  H108     1.0000 0.98025  0.73650  0.18846  Biso   1.000  H
  H109     1.0000 0.92431  0.78492  0.25774  Biso   1.000  H
  C119     1.0000 0.05590  0.82011  0.24776  Biso   1.000  C
  C120     1.0000 0.02421  0.94052  0.08897  Biso   1.000  C
  C121     1.0000 0.93265  0.10515  0.96346  Biso   1.000  C
  H110     1.0000 0.55836  0.09380  0.92700  Biso   1.000  H
  H111     1.0000 0.55612  0.01791  0.98616  Biso   1.000  H
  H112     1.0000 0.50870  0.09553  0.01878  Biso   1.000  H
  H113     1.0000 0.83801  0.08960  0.76939  Biso   1.000  H
  C122     1.0000 0.02347  0.09553  0.94148  Biso   1.000  C
  H114     1.0000 0.10658  0.07653  0.83834  Biso   1.000  H
  H115     1.0000 0.99178  0.77243  0.99895  Biso   1.000  H
  C123     1.0000 0.09077  0.96712  0.03398  Biso   1.000  C
  H116     1.0000 0.17349  0.93821  0.93417  Biso   1.000  H
  H117     1.0000 0.10157  0.82264  0.20229  Biso   1.000  H
  H118     1.0000 0.07831  0.78642  0.29499  Biso   1.000  H
  H119     1.0000 0.04547  0.87193  0.27085  Biso   1.000  H
  H120     1.0000 0.00321  0.97230  0.13477  Biso   1.000  H
  H121     1.0000 0.91780  0.11315  0.02270  Biso   1.000  H
  C124     1.0000 0.09769  0.10601  0.01050  Biso   1.000  C
  N18      1.0000 0.12949  0.04215  0.05094  Biso   1.000  N
  O18      1.0000 0.12618  0.17056  0.02909  Biso   1.000  O
  C125     1.0000 0.19732  0.04975  0.12388  Biso   1.000  C
  H122     1.0000 0.20446  0.10480  0.13875  Biso   1.000  H
  H123     1.0000 0.17375  0.02292  0.17567  Biso   1.000  H
  C126     1.0000 0.28621  0.01820  0.10398  Biso   1.000  C
  H124     1.0000 0.27925  0.96424  0.08637  Biso   1.000  H
  H125     1.0000 0.32690  0.02154  0.15578  Biso   1.000  H
  H126     1.0000 0.31256  0.04774  0.05616  Biso   1.000  H
  O19      1.0000 0.28999  0.29230  0.31267  Biso   1.000  O
  C127     1.0000 0.25621  0.32172  0.24646  Biso   1.000  C
  C128     1.0000 0.15838  0.34723  0.24411  Biso   1.000  C
  N19      1.0000 0.30479  0.33180  0.17398  Biso   1.000  N
  C129     1.0000 0.13469  0.41351  0.28938  Biso   1.000  C
  C130     1.0000 0.09157  0.30208  0.20347  Biso   1.000  C
  C131     1.0000 0.27039  0.37309  0.09857  Biso   1.000  C
  C132     1.0000 0.40036  0.30479  0.17411  Biso   1.000  C
  C133     1.0000 0.04430  0.43551  0.29297  Biso   1.000  C
  H127     1.0000 0.18101  0.44351  0.31789  Biso   1.000  H
  H128     1.0000 0.10803  0.25769  0.17131  Biso   1.000  H
  C134     1.0000 0.99970  0.32299  0.21051  Biso   1.000  C
  C135     1.0000 0.23346  0.33260  0.02792  Biso   1.000  C
  C136     1.0000 0.27947  0.45284  0.09511  Biso   1.000  C
  H129     1.0000 0.42939  0.31389  0.23230  Biso   1.000  H
  H130     1.0000 0.43479  0.33450  0.13080  Biso   1.000  H
  C137     1.0000 0.40576  0.22020  0.15252  Biso   1.000  C
  N20      1.0000 0.02043  0.50282  0.34131  Biso   1.000  N
  C138     1.0000 0.97577  0.38978  0.25448  Biso   1.000  C
  N21      1.0000 0.92823  0.27289  0.17731  Biso   1.000  N
  H131     1.0000 0.22818  0.27813  0.03001  Biso   1.000  H
  C139     1.0000 0.20425  0.37343  0.95388  Biso   1.000  C
  C140     1.0000 0.25282  0.49211  0.01990  Biso   1.000  C
  H132     1.0000 0.30392  0.48019  0.14411  Biso   1.000  H
  H133     1.0000 0.37717  0.19020  0.19858  Biso   1.000  H
  H134     1.0000 0.47017  0.20500  0.14828  Biso   1.000  H
  H135     1.0000 0.37351  0.21041  0.09668  Biso   1.000  H
  C141     1.0000 0.00419  0.57221  0.30367  Biso   1.000  C
  C142     1.0000 0.00909  0.49430  0.43656  Biso   1.000  C
  H136     1.0000 0.91319  0.40418  0.25827  Biso   1.000  H
  C143     1.0000 0.87301  0.29339  0.10888  Biso   1.000  C
  C144     1.0000 0.89920  0.20920  0.23641  Biso   1.000  C
  C145     1.0000 0.21498  0.45301  0.94853  Biso   1.000  C
  C146     1.0000 0.16489  0.32829  0.87762  Biso   1.000  C
  N22      1.0000 0.26961  0.57400  0.01533  Biso   1.000  N
  C147     1.0000 0.02493  0.57952  0.20888  Biso   1.000  C
  O20      1.0000 0.97717  0.62743  0.34496  Biso   1.000  O
  H137     1.0000 0.01340  0.54572  0.46428  Biso   1.000  H
  H138     1.0000 0.05982  0.46240  0.46108  Biso   1.000  H
  C148     1.0000 0.92021  0.45831  0.45887  Biso   1.000  C
  C149     1.0000 0.91253  0.34781  0.04501  Biso   1.000  C
  O21      1.0000 0.79543  0.26633  0.09622  Biso   1.000  O
  H139     1.0000 0.84292  0.18490  0.21169  Biso   1.000  H
  H140     1.0000 0.88457  0.23103  0.29402  Biso   1.000  H
  C150     1.0000 0.97278  0.14828  0.24842  Biso   1.000  C
  H141     1.0000 0.19676  0.48013  0.89699  Biso   1.000  H
  N23      1.0000 0.07309  0.33520  0.86111  Biso   1.000  N
  O22      1.0000 0.21489  0.28792  0.83261  Biso   1.000  O
  C151     1.0000 0.23221  0.62329  0.07411  Biso   1.000  C
  C152     1.0000 0.35156  0.59789  0.96869  Biso   1.000  C
  C153     1.0000 0.11478  0.59064  0.18670  Biso   1.000  C
  C154     1.0000 0.95540  0.58281  0.14567  Biso   1.000  C
  H142     1.0000 0.86960  0.49033  0.43610  Biso   1.000  H
  H143     1.0000 0.91637  0.45411  0.52241  Biso   1.000  H
  H144     1.0000 0.91602  0.40689  0.43277  Biso   1.000  H
  C155     1.0000 0.98159  0.32172  0.99113  Biso   1.000  C
  C156     1.0000 0.87512  0.42053  0.03099  Biso   1.000  C
  H145     1.0000 0.02622  0.17068  0.27901  Biso   1.000  H
  H146     1.0000 0.99071  0.12928  0.19121  Biso   1.000  H
  H147     1.0000 0.94891  0.10549  0.28267  Biso   1.000  H
  C157     1.0000 0.03120  0.28913  0.78949  Biso   1.000  C
  C158     1.0000 0.01167  0.36692  0.92328  Biso   1.000  C
  C159     1.0000 0.13651  0.60319  0.10020  Biso   1.000  C
  O23      1.0000 0.26918  0.68254  0.09922  Biso   1.000  O
  C160     1.0000 0.43972  0.57423  0.01298  Biso   1.000  C
  H148     1.0000 0.35090  0.65461  0.96249  Biso   1.000  H
  H149     1.0000 0.34873  0.57543  0.90939  Biso   1.000  H
  H150     1.0000 0.16203  0.58960  0.23061  Biso   1.000  H
  C161     1.0000 0.97650  0.59553  0.05852  Biso   1.000  C
  H151     1.0000 0.89339  0.57653  0.16159  Biso   1.000  H
  H152     1.0000 0.00818  0.27243  0.00098  Biso   1.000  H
  C162     1.0000 0.90920  0.46712  0.96601  Biso   1.000  C
  H153     1.0000 0.82647  0.43821  0.06582  Biso   1.000  H
  C163     1.0000 0.94407  0.32011  0.75224  Biso   1.000  C
  H154     1.0000 0.01979  0.23650  0.81153  Biso   1.000  H
  H155     1.0000 0.07565  0.28492  0.74219  Biso   1.000  H
  C164     1.0000 0.97583  0.44052  0.91102  Biso   1.000  C
  C165     1.0000 0.06731  0.60509  0.03647  Biso   1.000  C
  H156     1.0000 0.44160  0.59380  0.07300  Biso   1.000  H
  H157     1.0000 0.44392  0.51791  0.01383  Biso   1.000  H
  H158     1.0000 0.49127  0.59553  0.98121  Biso   1.000  H
  C166     1.0000 0.90228  0.60601  0.98950  Biso   1.000  C
  N24      1.0000 0.87047  0.54209  0.94899  Biso   1.000  N
  H159     1.0000 0.89840  0.32258  0.79770  Biso   1.000  H
  H160     1.0000 0.92173  0.28642  0.70501  Biso   1.000  H
  H161     1.0000 0.95449  0.37193  0.72908  Biso   1.000  H
  H162     1.0000 0.99682  0.47230  0.86522  Biso   1.000  H
  H163     1.0000 0.08216  0.61309  0.97730  Biso   1.000  H
  O24      1.0000 0.87378  0.67056  0.97091  Biso   1.000  O
  C167     1.0000 0.80272  0.54969  0.87612  Biso   1.000  C
  H164     1.0000 0.79550  0.60480  0.86118  Biso   1.000  H
  H165     1.0000 0.82621  0.52292  0.82432  Biso   1.000  H
  C168     1.0000 0.71383  0.51820  0.89601  Biso   1.000  C
  H166     1.0000 0.72071  0.46418  0.91363  Biso   1.000  H
  H167     1.0000 0.67313  0.52154  0.84422  Biso   1.000  H
  H168     1.0000 0.68741  0.54774  0.94383  Biso   1.000  H
  Ne1      1.0000 0.07418  0.43299  0.09299  Biso   1.000  Ne
  He1      1.0000 0.19028  0.48684  0.19435  Biso   1.000  He
  He2      1.0000 0.93070  0.46262  0.15097  Biso   1.000  He
  He3      1.0000 0.09984  0.32154  0.07005  Biso   1.000  He
  Ar1      1.0000 0.07337  0.44252  0.09633  Biso   1.000  Ar
  Ne2      1.0000 0.42689  0.20876  0.59451  Biso   1.000  Ne
  He4      1.0000 0.31992  0.24904  0.71773  Biso   1.000  He
  He5      1.0000 0.55632  0.26988  0.62005  Biso   1.000  He
  He6      1.0000 0.44792  0.09123  0.58650  Biso   1.000  He
  He7      1.0000 0.36062  0.26109  0.46548  Biso   1.000  He
  Ar2      1.0000 0.42808  0.21254  0.59683  Biso   1.000  Ar
  Ne3      1.0000 0.57309  0.70878  0.40545  Biso   1.000  Ne
  He8      1.0000 0.64120  0.76255  0.53883  Biso   1.000  He
  He9      1.0000 0.55187  0.58952  0.41358  Biso   1.000  He
  He10     1.0000 0.43696  0.77326  0.37850  Biso   1.000  He
  He11     1.0000 0.67009  0.74681  0.29479  Biso   1.000  He
  Ar3      1.0000 0.57155  0.71224  0.40306  Biso   1.000  Ar
  Ne4      1.0000 0.92580  0.93300  0.90697  Biso   1.000  Ne
  He12     1.0000 0.91332  0.00689  0.04099  Biso   1.000  He
  He13     1.0000 0.89993  0.81919  0.93027  Biso   1.000  He
  He14     1.0000 0.06885  0.96258  0.84917  Biso   1.000  He
  He15     1.0000 0.81491  0.98463  0.80980  Biso   1.000  He
  Ar4      1.0000 0.92522  0.94193  0.90421  Biso   1.000  Ar
