data_image0
_cell_length_a       11.314
_cell_length_b       11.314
_cell_length_c       36.7
_cell_angle_alpha    90
_cell_angle_beta     90
_cell_angle_gamma    120

_symmetry_space_group_name_H-M    "P 1"
_symmetry_int_tables_number       1

loop_
  _symmetry_equiv_pos_as_xyz
  'x, y, z'

loop_
  _atom_site_label
  _atom_site_occupancy
  _atom_site_fract_x
  _atom_site_fract_y
  _atom_site_fract_z
  _atom_site_thermal_displace_type
  _atom_site_B_iso_or_equiv
  _atom_site_type_symbol
  O1       1.0000 0.57565  0.91353  0.47913  Biso   1.000  O
  C1       1.0000 0.45213  0.78759  0.47850  Biso   1.000  C
  C2       1.0000 0.63145  0.96752  0.44684  Biso   1.000  C
  C3       1.0000 0.45792  0.66890  0.47866  Biso   1.000  C
  C4       1.0000 0.33109  0.78892  0.47866  Biso   1.000  C
  N1       1.0000 0.56845  0.90180  0.41670  Biso   1.000  N
  N2       1.0000 0.74780  0.08479  0.44913  Biso   1.000  N
  C5       1.0000 0.33544  0.54786  0.47850  Biso   1.000  C
  H1       1.0000 0.54084  0.67033  0.47891  Biso   1.000  H
  C6       1.0000 0.21240  0.66451  0.47850  Biso   1.000  C
  H2       1.0000 0.32961  0.87046  0.47891  Biso   1.000  H
  C7       1.0000 0.63423  0.96477  0.38649  Biso   1.000  C
  C8       1.0000 0.79964  0.13296  0.41670  Biso   1.000  C
  O2       1.0000 0.33790  0.42426  0.47913  Biso   1.000  O
  C9       1.0000 0.21100  0.54204  0.47866  Biso   1.000  C
  O3       1.0000 0.08638  0.66206  0.47913  Biso   1.000  O
  O4       1.0000 0.58030  0.90904  0.35420  Biso   1.000  O
  N3       1.0000 0.75145  0.08112  0.38420  Biso   1.000  N
  Cl1      1.0000 0.95268  0.28595  0.41670  Biso   1.000  Cl
  C10      1.0000 0.33606  0.36843  0.44684  Biso   1.000  C
  H3       1.0000 0.12948  0.45906  0.47891  Biso   1.000  H
  C11      1.0000 0.03241  0.66390  0.44684  Biso   1.000  C
  C12      1.0000 0.45424  0.78545  0.35482  Biso   1.000  C
  N4       1.0000 0.33331  0.43151  0.41670  Biso   1.000  N
  N5       1.0000 0.33698  0.25219  0.44913  Biso   1.000  N
  N6       1.0000 0.09822  0.66665  0.41670  Biso   1.000  N
  N7       1.0000 0.91519  0.66298  0.44913  Biso   1.000  N
  C13      1.0000 0.45568  0.66441  0.35466  Biso   1.000  C
  C14      1.0000 0.33557  0.79116  0.35466  Biso   1.000  C
  C15      1.0000 0.33053  0.36568  0.38649  Biso   1.000  C
  C16      1.0000 0.33328  0.20024  0.41670  Biso   1.000  C
  C17      1.0000 0.03516  0.66941  0.38649  Biso   1.000  C
  C18      1.0000 0.86700  0.66665  0.41670  Biso   1.000  C
  C19      1.0000 0.33119  0.54571  0.35482  Biso   1.000  C
  H4       1.0000 0.53711  0.66288  0.35444  Biso   1.000  H
  C20      1.0000 0.21455  0.66880  0.35482  Biso   1.000  C
  H5       1.0000 0.33707  0.87424  0.35444  Biso   1.000  H
  O5       1.0000 0.32871  0.41967  0.35420  Biso   1.000  O
  N8       1.0000 0.32967  0.24851  0.38420  Biso   1.000  N
  Cl2      1.0000 0.33324  0.04725  0.41670  Biso   1.000  Cl
  O6       1.0000 0.09097  0.67124  0.35420  Biso   1.000  O
  N9       1.0000 0.91886  0.67033  0.38420  Biso   1.000  N
  Cl3      1.0000 0.71400  0.66665  0.41670  Biso   1.000  Cl
  C21      1.0000 0.20877  0.54428  0.35466  Biso   1.000  C
  H6       1.0000 0.12580  0.46284  0.35444  Biso   1.000  H
  N10      1.0000 0.66301  0.74779  0.55087  Biso   1.000  N
  C22      1.0000 0.66387  0.63144  0.55316  Biso   1.000  C
  C23      1.0000 0.66666  0.79964  0.58330  Biso   1.000  C
  O7       1.0000 0.66209  0.57572  0.52087  Biso   1.000  O
  N11      1.0000 0.66668  0.56847  0.58330  Biso   1.000  N
  Cl4      1.0000 0.66666  0.95272  0.58330  Biso   1.000  Cl
  N12      1.0000 0.67032  0.75146  0.61580  Biso   1.000  N
  C24      1.0000 0.66446  0.45212  0.52150  Biso   1.000  C
  C25      1.0000 0.66941  0.63420  0.61351  Biso   1.000  C
  C26      1.0000 0.54207  0.33108  0.52134  Biso   1.000  C
  C27      1.0000 0.78893  0.45784  0.52134  Biso   1.000  C
  O8       1.0000 0.67122  0.58021  0.64580  Biso   1.000  O
  H7       1.0000 0.45910  0.32955  0.52109  Biso   1.000  H
  C28      1.0000 0.54786  0.21239  0.52150  Biso   1.000  C
  C29      1.0000 0.78759  0.33547  0.52150  Biso   1.000  C
  H8       1.0000 0.87051  0.54092  0.52109  Biso   1.000  H
  C30      1.0000 0.66880  0.45427  0.64518  Biso   1.000  C
  O9       1.0000 0.42434  0.08644  0.52087  Biso   1.000  O
  C31      1.0000 0.66885  0.21096  0.52134  Biso   1.000  C
  O10      1.0000 0.91361  0.33792  0.52087  Biso   1.000  O
  C32      1.0000 0.79122  0.45570  0.64534  Biso   1.000  C
  C33      1.0000 0.54431  0.33557  0.64534  Biso   1.000  C
  C34      1.0000 0.36848  0.03235  0.55316  Biso   1.000  C
  H9       1.0000 0.67038  0.12951  0.52109  Biso   1.000  H
  C35      1.0000 0.96758  0.33608  0.55316  Biso   1.000  C
  C36      1.0000 0.78544  0.33118  0.64518  Biso   1.000  C
  H10      1.0000 0.87419  0.53714  0.64556  Biso   1.000  H
  C37      1.0000 0.54566  0.21453  0.64518  Biso   1.000  C
  H11      1.0000 0.46288  0.33710  0.64556  Biso   1.000  H
  N13      1.0000 0.43145  0.09818  0.58330  Biso   1.000  N
  N14      1.0000 0.25219  0.91519  0.55087  Biso   1.000  N
  N15      1.0000 0.90177  0.33333  0.58330  Biso   1.000  N
  N16      1.0000 0.08489  0.33700  0.55087  Biso   1.000  N
  O11      1.0000 0.90902  0.32873  0.64580  Biso   1.000  O
  C38      1.0000 0.66437  0.20871  0.64534  Biso   1.000  C
  O12      1.0000 0.41969  0.09093  0.64580  Biso   1.000  O
  C39      1.0000 0.36576  0.03521  0.61351  Biso   1.000  C
  C40      1.0000 0.20026  0.86702  0.58330  Biso   1.000  C
  C41      1.0000 0.96483  0.33057  0.61351  Biso   1.000  C
  C42      1.0000 0.13299  0.33333  0.58330  Biso   1.000  C
  H12      1.0000 0.66292  0.12574  0.64556  Biso   1.000  H
  N17      1.0000 0.24854  0.91886  0.61580  Biso   1.000  N
  Cl5      1.0000 0.04726  0.71393  0.58330  Biso   1.000  Cl
  N18      1.0000 0.08121  0.32965  0.61580  Biso   1.000  N
  Cl6      1.0000 0.28598  0.33333  0.58330  Biso   1.000  Cl
  O13      1.0000 0.75302  0.75759  0.31245  Biso   1.000  O
  C43      1.0000 0.69903  0.70176  0.28019  Biso   1.000  C
  C44      1.0000 0.87907  0.88118  0.31183  Biso   1.000  C
  C45      1.0000 0.87899  0.88118  0.31183  Biso   1.000  C
  N19      1.0000 0.58178  0.58552  0.28248  Biso   1.000  N
  N20      1.0000 0.76486  0.76483  0.24997  Biso   1.000  N
  N21      1.0000 0.76477  0.76483  0.24997  Biso   1.000  N
  O14      1.0000 0.75311  0.75759  0.31245  Biso   1.000  O
  C46      1.0000 0.99770  0.87536  0.31202  Biso   1.000  C
  C47      1.0000 0.87764  0.00222  0.31202  Biso   1.000  C
  C48      1.0000 0.53367  0.53367  0.24997  Biso   1.000  C
  C49      1.0000 0.53358  0.53367  0.24997  Biso   1.000  C
  C50      1.0000 0.70181  0.69901  0.21981  Biso   1.000  C
  C51      1.0000 0.70177  0.69911  0.21981  Biso   1.000  C
  H13      1.0000 0.99616  0.79239  0.31223  Biso   1.000  H
  C52      1.0000 0.11877  0.99784  0.31183  Biso   1.000  C
  C53      1.0000 0.11886  0.99784  0.31183  Biso   1.000  C
  H14      1.0000 0.79611  0.00375  0.31223  Biso   1.000  H
  H15      1.0000 0.79615  0.00365  0.31223  Biso   1.000  H
  C54      1.0000 0.00212  0.12092  0.31183  Biso   1.000  C
  C55      1.0000 0.00221  0.12092  0.31183  Biso   1.000  C
  N22      1.0000 0.58551  0.58184  0.21752  Biso   1.000  N
  Cl7      1.0000 0.38059  0.38058  0.24997  Biso   1.000  Cl
  Cl8      1.0000 0.38055  0.38068  0.24997  Biso   1.000  Cl
  O15      1.0000 0.75762  0.75299  0.18755  Biso   1.000  O
  O16      1.0000 0.75758  0.75310  0.18755  Biso   1.000  O
  O17      1.0000 0.24243  0.99539  0.31245  Biso   1.000  O
  C56      1.0000 0.12464  0.12235  0.31202  Biso   1.000  C
  C57      1.0000 0.12450  0.12225  0.31202  Biso   1.000  C
  O18      1.0000 0.00455  0.24686  0.31245  Biso   1.000  O
  C58      1.0000 0.88118  0.87904  0.18817  Biso   1.000  C
  C59      1.0000 0.88127  0.87904  0.18817  Biso   1.000  C
  C60      1.0000 0.29815  0.99722  0.28019  Biso   1.000  C
  H16      1.0000 0.20761  0.20379  0.31223  Biso   1.000  H
  C61      1.0000 0.00273  0.30085  0.28019  Biso   1.000  C
  C62      1.0000 0.00264  0.30085  0.28019  Biso   1.000  C
  C63      1.0000 0.87539  0.99773  0.18798  Biso   1.000  C
  C64      1.0000 0.87548  0.99773  0.18798  Biso   1.000  C
  C65      1.0000 0.00218  0.87761  0.18798  Biso   1.000  C
  C66      1.0000 0.00227  0.87761  0.18798  Biso   1.000  C
  N23      1.0000 0.23518  0.99998  0.24997  Biso   1.000  N
  N24      1.0000 0.41454  0.99630  0.28248  Biso   1.000  N
  N25      1.0000 0.00001  0.23512  0.24997  Biso   1.000  N
  N26      1.0000 0.00010  0.23512  0.24997  Biso   1.000  N
  N27      1.0000 0.00365  0.41812  0.28248  Biso   1.000  N
  H17      1.0000 0.79234  0.99620  0.18777  Biso   1.000  H
  C67      1.0000 0.99787  0.11878  0.18817  Biso   1.000  C
  C68      1.0000 0.99778  0.11878  0.18817  Biso   1.000  C
  H18      1.0000 0.00379  0.79617  0.18777  Biso   1.000  H
  C69      1.0000 0.12091  0.00212  0.18817  Biso   1.000  C
  C70      1.0000 0.30091  0.00273  0.21981  Biso   1.000  C
  C71      1.0000 0.46635  0.99988  0.24997  Biso   1.000  C
  C72      1.0000 0.46631  0.99998  0.24997  Biso   1.000  C
  C73      1.0000 0.99711  0.29809  0.21981  Biso   1.000  C
  C74      1.0000 0.00007  0.46629  0.24997  Biso   1.000  C
  O19      1.0000 0.99536  0.24227  0.18755  Biso   1.000  O
  C75      1.0000 0.12235  0.12449  0.18798  Biso   1.000  C
  O20      1.0000 0.24694  0.00457  0.18755  Biso   1.000  O
  N28      1.0000 0.41812  0.00365  0.21752  Biso   1.000  N
  N29      1.0000 0.41804  0.00365  0.21752  Biso   1.000  N
  Cl9      1.0000 0.61940  0.99998  0.24997  Biso   1.000  Cl
  N30      1.0000 0.99624  0.41444  0.21752  Biso   1.000  N
  Cl10     1.0000 0.99998  0.61938  0.24997  Biso   1.000  Cl
  H19      1.0000 0.20384  0.20757  0.18777  Biso   1.000  H
  H20      1.0000 0.20379  0.20747  0.18777  Biso   1.000  H
  C76      1.0000 0.99785  0.87904  0.68817  Biso   1.000  C
  C77      1.0000 0.99777  0.87904  0.68817  Biso   1.000  C
  C78      1.0000 0.99720  0.69901  0.71981  Biso   1.000  C
  C79      1.0000 0.12234  0.99773  0.68798  Biso   1.000  C
  C80      1.0000 0.87543  0.87761  0.68798  Biso   1.000  C
  O21      1.0000 0.99538  0.75299  0.68755  Biso   1.000  O
  C81      1.0000 0.87534  0.87761  0.68798  Biso   1.000  C
  N31      1.0000 0.99997  0.76483  0.75003  Biso   1.000  N
  N32      1.0000 0.99988  0.76483  0.75003  Biso   1.000  N
  N33      1.0000 0.99624  0.58184  0.71752  Biso   1.000  N
  H21      1.0000 0.20386  0.99620  0.68777  Biso   1.000  H
  C82      1.0000 0.12099  0.11878  0.68817  Biso   1.000  C
  C83      1.0000 0.12085  0.11867  0.68817  Biso   1.000  C
  H22      1.0000 0.79237  0.79617  0.68777  Biso   1.000  H
  C84      1.0000 0.88121  0.00212  0.68817  Biso   1.000  C
  C85      1.0000 0.88112  0.00212  0.68817  Biso   1.000  C
  C86      1.0000 0.00282  0.70176  0.78019  Biso   1.000  C
  C87      1.0000 0.99986  0.53357  0.75003  Biso   1.000  C
  C88      1.0000 1.00000  0.53367  0.75003  Biso   1.000  C
  O22      1.0000 0.24691  0.24227  0.68755  Biso   1.000  O
  O23      1.0000 0.24682  0.24227  0.68755  Biso   1.000  O
  C89      1.0000 0.00214  0.12449  0.68798  Biso   1.000  C
  O24      1.0000 0.75754  0.00457  0.68755  Biso   1.000  O
  O25      1.0000 0.00457  0.75759  0.81245  Biso   1.000  O
  N34      1.0000 0.00374  0.58552  0.78248  Biso   1.000  N
  Cl11     1.0000 0.99999  0.38058  0.75003  Biso   1.000  Cl
  C90      1.0000 0.30089  0.29809  0.71981  Biso   1.000  C
  H23      1.0000 0.00368  0.20747  0.68777  Biso   1.000  H
  H24      1.0000 0.00382  0.20757  0.68777  Biso   1.000  H
  C91      1.0000 0.70183  0.00273  0.71981  Biso   1.000  C
  C92      1.0000 0.70174  0.00273  0.71981  Biso   1.000  C
  C93      1.0000 0.00211  0.88118  0.81183  Biso   1.000  C
  C94      1.0000 0.00220  0.88118  0.81183  Biso   1.000  C
  N35      1.0000 0.23512  0.23512  0.75003  Biso   1.000  N
  N36      1.0000 0.23520  0.23512  0.75003  Biso   1.000  N
  N37      1.0000 0.41820  0.41444  0.71752  Biso   1.000  N
  N38      1.0000 0.58544  0.00365  0.71752  Biso   1.000  N
  N39      1.0000 0.76479  0.99998  0.75003  Biso   1.000  N
  C95      1.0000 0.87758  0.87536  0.81202  Biso   1.000  C
  C96      1.0000 0.12459  0.00222  0.81202  Biso   1.000  C
  C97      1.0000 0.12450  0.00222  0.81202  Biso   1.000  C
  C98      1.0000 0.46631  0.46629  0.75003  Biso   1.000  C
  C99      1.0000 0.46639  0.46629  0.75003  Biso   1.000  C
  C100     1.0000 0.29812  0.30085  0.78019  Biso   1.000  C
  C101     1.0000 0.53358  0.99998  0.75003  Biso   1.000  C
  C102     1.0000 0.69907  0.99722  0.78019  Biso   1.000  C
  C103     1.0000 0.87907  0.99784  0.81183  Biso   1.000  C
  H25      1.0000 0.79614  0.79239  0.81223  Biso   1.000  H
  C104     1.0000 0.11879  0.12092  0.81183  Biso   1.000  C
  C105     1.0000 0.11871  0.12092  0.81183  Biso   1.000  C
  H26      1.0000 0.20750  0.00365  0.81223  Biso   1.000  H
  H27      1.0000 0.20764  0.00375  0.81223  Biso   1.000  H
  N40      1.0000 0.41447  0.41812  0.78248  Biso   1.000  N
  Cl12     1.0000 0.61943  0.61928  0.75003  Biso   1.000  Cl
  O26      1.0000 0.24231  0.24686  0.81245  Biso   1.000  O
  N41      1.0000 0.58185  0.99630  0.78248  Biso   1.000  N
  Cl13     1.0000 0.38058  0.99998  0.75003  Biso   1.000  Cl
  O27      1.0000 0.75304  0.99539  0.81245  Biso   1.000  O
  C106     1.0000 0.99780  0.12235  0.81202  Biso   1.000  C
  C107     1.0000 0.99771  0.12235  0.81202  Biso   1.000  C
  H28      1.0000 0.99619  0.20379  0.81223  Biso   1.000  H
  C108     1.0000 0.45560  0.79116  0.85466  Biso   1.000  C
  C109     1.0000 0.45425  0.66880  0.85482  Biso   1.000  C
  C110     1.0000 0.33121  0.78545  0.85482  Biso   1.000  C
  H29      1.0000 0.53717  0.87424  0.85444  Biso   1.000  H
  C111     1.0000 0.33551  0.54428  0.85466  Biso   1.000  C
  O28      1.0000 0.58028  0.67124  0.85420  Biso   1.000  O
  C112     1.0000 0.20873  0.66441  0.85466  Biso   1.000  C
  O29      1.0000 0.32875  0.90904  0.85420  Biso   1.000  O
  C113     1.0000 0.21452  0.54571  0.85482  Biso   1.000  C
  H30      1.0000 0.33704  0.46284  0.85444  Biso   1.000  H
  C114     1.0000 0.63424  0.66941  0.88649  Biso   1.000  C
  H31      1.0000 0.12576  0.66288  0.85444  Biso   1.000  H
  C115     1.0000 0.33054  0.96477  0.88649  Biso   1.000  C
  O30      1.0000 0.09095  0.41967  0.85420  Biso   1.000  O
  N42      1.0000 0.56843  0.66665  0.91670  Biso   1.000  N
  N43      1.0000 0.75146  0.67033  0.88420  Biso   1.000  N
  N44      1.0000 0.33335  0.90180  0.91670  Biso   1.000  N
  N45      1.0000 0.32967  0.08112  0.88420  Biso   1.000  N
  C116     1.0000 0.03515  0.36568  0.88649  Biso   1.000  C
  C117     1.0000 0.63149  0.66390  0.94684  Biso   1.000  C
  C118     1.0000 0.79965  0.66665  0.91670  Biso   1.000  C
  C119     1.0000 0.33607  0.96752  0.94684  Biso   1.000  C
  C120     1.0000 0.33332  0.13296  0.91670  Biso   1.000  C
  N46      1.0000 0.09820  0.43151  0.91670  Biso   1.000  N
  N47      1.0000 0.91885  0.24851  0.88420  Biso   1.000  N
  O31      1.0000 0.57568  0.66206  0.97913  Biso   1.000  O
  N48      1.0000 0.74779  0.66298  0.94913  Biso   1.000  N
  Cl14     1.0000 0.95265  0.66665  0.91670  Biso   1.000  Cl
  O32      1.0000 0.33789  0.91353  0.97913  Biso   1.000  O
  N49      1.0000 0.33699  0.08479  0.94913  Biso   1.000  N
  Cl15     1.0000 0.33327  0.28595  0.91670  Biso   1.000  Cl
  C121     1.0000 0.03237  0.36843  0.94684  Biso   1.000  C
  C122     1.0000 0.86696  0.20024  0.91670  Biso   1.000  C
  C123     1.0000 0.45211  0.66451  0.97850  Biso   1.000  C
  C124     1.0000 0.33546  0.78759  0.97850  Biso   1.000  C
  O33      1.0000 0.08636  0.42426  0.97913  Biso   1.000  O
  N50      1.0000 0.91521  0.25219  0.94913  Biso   1.000  N
  Cl16     1.0000 0.71401  0.04725  0.91670  Biso   1.000  Cl
  C125     1.0000 0.33103  0.54204  0.97866  Biso   1.000  C
  C126     1.0000 0.45783  0.78892  0.97866  Biso   1.000  C
  C127     1.0000 0.21097  0.66890  0.97866  Biso   1.000  C
  C128     1.0000 0.21241  0.54786  0.97850  Biso   1.000  C
  H32      1.0000 0.32958  0.45906  0.97891  Biso   1.000  H
  H33      1.0000 0.54085  0.87046  0.97891  Biso   1.000  H
  H34      1.0000 0.12949  0.67033  0.97891  Biso   1.000  H
  O34      1.0000 0.41971  0.32873  0.14580  Biso   1.000  O
  C129     1.0000 0.36574  0.33057  0.11351  Biso   1.000  C
  C130     1.0000 0.54574  0.33118  0.14518  Biso   1.000  C
  N51      1.0000 0.43147  0.33333  0.08330  Biso   1.000  N
  N52      1.0000 0.24853  0.32965  0.11580  Biso   1.000  N
  C131     1.0000 0.54425  0.20871  0.14534  Biso   1.000  C
  C132     1.0000 0.66439  0.45570  0.14534  Biso   1.000  C
  C133     1.0000 0.36850  0.33608  0.05316  Biso   1.000  C
  C134     1.0000 0.20034  0.33333  0.08330  Biso   1.000  C
  C135     1.0000 0.66878  0.21453  0.14518  Biso   1.000  C
  H35      1.0000 0.46282  0.12574  0.14556  Biso   1.000  H
  C136     1.0000 0.78538  0.45427  0.14518  Biso   1.000  C
  H36      1.0000 0.66286  0.53714  0.14556  Biso   1.000  H
  O35      1.0000 0.42431  0.33792  0.02087  Biso   1.000  O
  N53      1.0000 0.25220  0.33700  0.05087  Biso   1.000  N
  Cl17     1.0000 0.04725  0.33333  0.08330  Biso   1.000  Cl
  O36      1.0000 0.67115  0.09093  0.14580  Biso   1.000  O
  C137     1.0000 0.79117  0.33557  0.14534  Biso   1.000  C
  O37      1.0000 0.90898  0.58021  0.14580  Biso   1.000  O
  C138     1.0000 0.54788  0.33547  0.02150  Biso   1.000  C
  C139     1.0000 0.66945  0.03521  0.11351  Biso   1.000  C
  H37      1.0000 0.87423  0.33710  0.14556  Biso   1.000  H
  C140     1.0000 0.96479  0.63420  0.11351  Biso   1.000  C
  C141     1.0000 0.66882  0.45784  0.02134  Biso   1.000  C
  C142     1.0000 0.54202  0.21096  0.02134  Biso   1.000  C
  N54      1.0000 0.66664  0.09818  0.08330  Biso   1.000  N
  N55      1.0000 0.67032  0.91886  0.11580  Biso   1.000  N
  N56      1.0000 0.90179  0.56847  0.08330  Biso   1.000  N
  N57      1.0000 0.08114  0.75146  0.11580  Biso   1.000  N
  H38      1.0000 0.67040  0.54092  0.02109  Biso   1.000  H
  C143     1.0000 0.78758  0.45212  0.02150  Biso   1.000  C
  C144     1.0000 0.66444  0.21239  0.02150  Biso   1.000  C
  H39      1.0000 0.45905  0.12951  0.02109  Biso   1.000  H
  C145     1.0000 0.66387  0.03235  0.05316  Biso   1.000  C
  C146     1.0000 0.66667  0.86702  0.08330  Biso   1.000  C
  C147     1.0000 0.96757  0.63144  0.05316  Biso   1.000  C
  C148     1.0000 0.13298  0.79964  0.08330  Biso   1.000  C
  O38      1.0000 0.91354  0.57572  0.02087  Biso   1.000  O
  C149     1.0000 0.78893  0.33108  0.02134  Biso   1.000  C
  O39      1.0000 0.66210  0.08644  0.02087  Biso   1.000  O
  N58      1.0000 0.66300  0.91519  0.05087  Biso   1.000  N
  Cl18     1.0000 0.66667  0.71393  0.08330  Biso   1.000  Cl
  N59      1.0000 0.08478  0.74779  0.05087  Biso   1.000  N
  Cl19     1.0000 0.28607  0.95272  0.08330  Biso   1.000  Cl
  H40      1.0000 0.87045  0.32955  0.02109  Biso   1.000  H
  Ne1      1.0000 0.96176  0.95821  0.24945  Biso   1.000  Ne
  He1      1.0000 0.86847  0.98241  0.25005  Biso   1.000  He
  He2      1.0000 0.98227  0.86369  0.24995  Biso   1.000  He
  He3      1.0000 0.11732  0.13487  0.25004  Biso   1.000  He
  Ar1      1.0000 0.99984  0.99999  0.25000  Biso   1.000  Ar
  Ne2      1.0000 0.66664  0.33332  0.08332  Biso   1.000  Ne
  He4      1.0000 0.82134  0.35179  0.08329  Biso   1.000  He
  He5      1.0000 0.53371  0.21809  0.08338  Biso   1.000  He
  He6      1.0000 0.64771  0.47940  0.08329  Biso   1.000  He
  Ar2      1.0000 0.66666  0.33334  0.08334  Biso   1.000  Ar
  Ne3      1.0000 0.33332  0.66663  0.41668  Biso   1.000  Ne
  He7      1.0000 0.48800  0.68512  0.41661  Biso   1.000  He
  He8      1.0000 0.20047  0.55141  0.41671  Biso   1.000  He
  He9      1.0000 0.31446  0.81277  0.41661  Biso   1.000  He
  Ar3      1.0000 0.33334  0.66668  0.41666  Biso   1.000  Ar
  Ne4      1.0000 0.66665  0.33332  0.58332  Biso   1.000  Ne
  He10     1.0000 0.53503  0.31572  0.58338  Biso   1.000  He
  He11     1.0000 0.78387  0.46824  0.58338  Biso   1.000  He
  He12     1.0000 0.64883  0.19697  0.58329  Biso   1.000  He
  Ar4      1.0000 0.66665  0.33333  0.58334  Biso   1.000  Ar
  Ne5      1.0000 0.01423  0.00542  0.74823  Biso   1.000  Ne
  He13     1.0000 0.15463  0.01838  0.74995  Biso   1.000  He
  He14     1.0000 0.86706  0.88471  0.75005  Biso   1.000  He
  He15     1.0000 0.98108  0.14608  0.74995  Biso   1.000  He
  Ar5      1.0000 0.99994  0.99995  0.75000  Biso   1.000  Ar
  Ne6      1.0000 0.33331  0.66663  0.91668  Biso   1.000  Ne
  He16     1.0000 0.20169  0.64903  0.91671  Biso   1.000  He
  He17     1.0000 0.45053  0.80157  0.91671  Biso   1.000  He
  He18     1.0000 0.31556  0.53034  0.91662  Biso   1.000  He
  Ar6      1.0000 0.33334  0.66668  0.91666  Biso   1.000  Ar
