data_image0
_cell_length_a       10.335
_cell_length_b       16.519
_cell_length_c       20.329
_cell_angle_alpha    90
_cell_angle_beta     95.3
_cell_angle_gamma    90

_symmetry_space_group_name_H-M    "P 1"
_symmetry_int_tables_number       1

loop_
  _symmetry_equiv_pos_as_xyz
  'x, y, z'

loop_
  _atom_site_label
  _atom_site_occupancy
  _atom_site_fract_x
  _atom_site_fract_y
  _atom_site_fract_z
  _atom_site_thermal_displace_type
  _atom_site_B_iso_or_equiv
  _atom_site_type_symbol
  C1       1.0000 0.54262  0.37648  0.47130  Biso   1.000  C
  C2       1.0000 0.40934  0.37811  0.48009  Biso   1.000  C
  C3       1.0000 0.55440  0.39070  0.40510  Biso   1.000  C
  H1       1.0000 0.61018  0.36752  0.50390  Biso   1.000  H
  C4       1.0000 0.34037  0.39282  0.42160  Biso   1.000  C
  H2       1.0000 0.37413  0.37030  0.52010  Biso   1.000  H
  N1       1.0000 0.43066  0.40033  0.37590  Biso   1.000  N
  C5       1.0000 0.67658  0.39760  0.36982  Biso   1.000  C
  C6       1.0000 0.19592  0.40571  0.40302  Biso   1.000  C
  H3       1.0000 0.41162  0.40959  0.33450  Biso   1.000  H
  C7       1.0000 0.65150  0.39058  0.29518  Biso   1.000  C
  C8       1.0000 0.73991  0.47981  0.38662  Biso   1.000  C
  C9       1.0000 0.77213  0.32938  0.39512  Biso   1.000  C
  C10      1.0000 0.15227  0.35850  0.34122  Biso   1.000  C
  C11      1.0000 0.12313  0.37472  0.46043  Biso   1.000  C
  C12      1.0000 0.16751  0.49579  0.39260  Biso   1.000  C
  N2       1.0000 0.60103  0.32217  0.26450  Biso   1.000  N
  C13      1.0000 0.68383  0.44167  0.24573  Biso   1.000  C
  H4       1.0000 0.81811  0.48471  0.36488  Biso   1.000  H
  H5       1.0000 0.76024  0.48381  0.43350  Biso   1.000  H
  H6       1.0000 0.68073  0.52231  0.37190  Biso   1.000  H
  H7       1.0000 0.84739  0.33210  0.37002  Biso   1.000  H
  H8       1.0000 0.80162  0.34088  0.44081  Biso   1.000  H
  C14      1.0000 0.72004  0.24208  0.39121  Biso   1.000  C
  N3       1.0000 0.19617  0.28119  0.33198  Biso   1.000  N
  C15      1.0000 0.06079  0.37442  0.29088  Biso   1.000  C
  H9       1.0000 0.15078  0.40462  0.49970  Biso   1.000  H
  H10      1.0000 0.14185  0.31830  0.46759  Biso   1.000  H
  H11      1.0000 0.03133  0.38180  0.44990  Biso   1.000  H
  H12      1.0000 0.19535  0.52491  0.43242  Biso   1.000  H
  H13      1.0000 0.07591  0.50348  0.38212  Biso   1.000  H
  H14      1.0000 0.21368  0.51559  0.35698  Biso   1.000  H
  C16      1.0000 0.60367  0.32581  0.19751  Biso   1.000  C
  H15      1.0000 0.57128  0.28168  0.28500  Biso   1.000  H
  C17      1.0000 0.65369  0.40081  0.18422  Biso   1.000  C
  H16      1.0000 0.71900  0.49331  0.25131  Biso   1.000  H
  H17      1.0000 0.63728  0.24130  0.41018  Biso   1.000  H
  H18      1.0000 0.70312  0.22780  0.34492  Biso   1.000  H
  C18      1.0000 0.79518  0.18397  0.42081  Biso   1.000  C
  C19      1.0000 0.13297  0.24729  0.27601  Biso   1.000  C
  H19      1.0000 0.25493  0.25722  0.35772  Biso   1.000  H
  C20      1.0000 0.04598  0.30450  0.25042  Biso   1.000  C
  H20      1.0000 0.01553  0.42273  0.28411  Biso   1.000  H
  C21      1.0000 0.57145  0.25280  0.15438  Biso   1.000  C
  H21      1.0000 0.66558  0.42121  0.14262  Biso   1.000  H
  O1       1.0000 0.72696  0.10721  0.41809  Biso   1.000  O
  H22      1.0000 0.81877  0.19868  0.46650  Biso   1.000  H
  H23      1.0000 0.87443  0.17888  0.39902  Biso   1.000  H
  C22      1.0000 0.16518  0.16363  0.25249  Biso   1.000  C
  H24      1.0000 0.98763  0.29850  0.21312  Biso   1.000  H
  C23      1.0000 0.48832  0.19729  0.19158  Biso   1.000  C
  C24      1.0000 0.70311  0.20873  0.14519  Biso   1.000  C
  C25      1.0000 0.50619  0.27599  0.08650  Biso   1.000  C
  C26      1.0000 0.77533  0.05188  0.45801  Biso   1.000  C
  C27      1.0000 0.30947  0.16048  0.24039  Biso   1.000  C
  C28      1.0000 0.07793  0.14523  0.18822  Biso   1.000  C
  C29      1.0000 0.14377  0.09988  0.30560  Biso   1.000  C
  N4       1.0000 0.35739  0.21042  0.19311  Biso   1.000  N
  C30      1.0000 0.52174  0.13942  0.23762  Biso   1.000  C
  H25      1.0000 0.68662  0.16187  0.11782  Biso   1.000  H
  H26      1.0000 0.74342  0.19232  0.18758  Biso   1.000  H
  H27      1.0000 0.75997  0.24499  0.12479  Biso   1.000  H
  H28      1.0000 0.48824  0.22792  0.06072  Biso   1.000  H
  H29      1.0000 0.56305  0.31061  0.06452  Biso   1.000  H
  H30      1.0000 0.42645  0.30401  0.09179  Biso   1.000  H
  C31      1.0000 0.69308  0.97833  0.46008  Biso   1.000  C
  O2       1.0000 0.87157  0.06247  0.49298  Biso   1.000  O
  C32      1.0000 0.41060  0.11690  0.26870  Biso   1.000  C
  H31      1.0000 0.09782  0.09220  0.17251  Biso   1.000  H
  H32      1.0000 0.09361  0.18458  0.15522  Biso   1.000  H
  H33      1.0000 0.98827  0.14722  0.19692  Biso   1.000  H
  C33      1.0000 0.15520  0.01162  0.28381  Biso   1.000  C
  H34      1.0000 0.20645  0.10921  0.34329  Biso   1.000  H
  H35      1.0000 0.05780  0.10788  0.32022  Biso   1.000  H
  H36      1.0000 0.31191  0.24420  0.16861  Biso   1.000  H
  H37      1.0000 0.60465  0.11811  0.24711  Biso   1.000  H
  C34      1.0000 0.56849  0.97288  0.42619  Biso   1.000  C
  C35      1.0000 0.74037  0.91640  0.49832  Biso   1.000  C
  H38      1.0000 0.40743  0.07912  0.30239  Biso   1.000  H
  H39      1.0000 0.22528  0.00817  0.25521  Biso   1.000  H
  C36      1.0000 0.17957  0.95000  0.33702  Biso   1.000  C
  H40      1.0000 0.07550  0.99697  0.25738  Biso   1.000  H
  C37      1.0000 0.49572  0.90429  0.43098  Biso   1.000  C
  H41      1.0000 0.53545  0.01598  0.40040  Biso   1.000  H
  C38      1.0000 0.66973  0.84709  0.50360  Biso   1.000  C
  H42      1.0000 0.82215  0.92082  0.52129  Biso   1.000  H
  O3       1.0000 0.31362  0.95811  0.36760  Biso   1.000  O
  H43      1.0000 0.11892  0.95769  0.37012  Biso   1.000  H
  H44      1.0000 0.16655  0.89612  0.31859  Biso   1.000  H
  C39      1.0000 0.36234  0.89079  0.39769  Biso   1.000  C
  C40      1.0000 0.54816  0.83958  0.46981  Biso   1.000  C
  H45      1.0000 0.70355  0.80477  0.52998  Biso   1.000  H
  O4       1.0000 0.30778  0.82723  0.39828  Biso   1.000  O
  H46      1.0000 0.50110  0.79200  0.47283  Biso   1.000  H
  C41      1.0000 0.45755  0.62352  0.52870  Biso   1.000  C
  C42      1.0000 0.59074  0.62189  0.51991  Biso   1.000  C
  H47      1.0000 0.38999  0.63248  0.49610  Biso   1.000  H
  C43      1.0000 0.44578  0.60930  0.59490  Biso   1.000  C
  C44      1.0000 0.65981  0.60718  0.57840  Biso   1.000  C
  H48      1.0000 0.62594  0.62970  0.47989  Biso   1.000  H
  N5       1.0000 0.56951  0.59967  0.62410  Biso   1.000  N
  C45      1.0000 0.32360  0.60240  0.63022  Biso   1.000  C
  C46      1.0000 0.80417  0.59429  0.59702  Biso   1.000  C
  H49      1.0000 0.58845  0.59041  0.66549  Biso   1.000  H
  C47      1.0000 0.34867  0.60942  0.70482  Biso   1.000  C
  C48      1.0000 0.26027  0.52019  0.61342  Biso   1.000  C
  C49      1.0000 0.22804  0.67062  0.60488  Biso   1.000  C
  C50      1.0000 0.84791  0.64150  0.65883  Biso   1.000  C
  C51      1.0000 0.87705  0.62528  0.53962  Biso   1.000  C
  C52      1.0000 0.83257  0.50421  0.60740  Biso   1.000  C
  N6       1.0000 0.39914  0.67783  0.73550  Biso   1.000  N
  C53      1.0000 0.31625  0.55833  0.75432  Biso   1.000  C
  H50      1.0000 0.18206  0.51529  0.63511  Biso   1.000  H
  H51      1.0000 0.23984  0.51619  0.56649  Biso   1.000  H
  H52      1.0000 0.31935  0.47769  0.62810  Biso   1.000  H
  H53      1.0000 0.15279  0.66790  0.63002  Biso   1.000  H
  H54      1.0000 0.19855  0.65912  0.55918  Biso   1.000  H
  C54      1.0000 0.28004  0.75792  0.60878  Biso   1.000  C
  N7       1.0000 0.80401  0.71881  0.66801  Biso   1.000  N
  C55      1.0000 0.93929  0.62558  0.70912  Biso   1.000  C
  H55      1.0000 0.84939  0.59538  0.50029  Biso   1.000  H
  H56      1.0000 0.85832  0.68170  0.53241  Biso   1.000  H
  H57      1.0000 0.96884  0.61820  0.55009  Biso   1.000  H
  H58      1.0000 0.80482  0.47509  0.56758  Biso   1.000  H
  H59      1.0000 0.92417  0.49652  0.61792  Biso   1.000  H
  H60      1.0000 0.78650  0.48441  0.64302  Biso   1.000  H
  H61      1.0000 0.42889  0.71832  0.71500  Biso   1.000  H
  C56      1.0000 0.39651  0.67419  0.80249  Biso   1.000  C
  H62      1.0000 0.28117  0.50669  0.74869  Biso   1.000  H
  C57      1.0000 0.34649  0.59919  0.81582  Biso   1.000  C
  H63      1.0000 0.36290  0.75870  0.58981  Biso   1.000  H
  H64      1.0000 0.29707  0.77220  0.65512  Biso   1.000  H
  C58      1.0000 0.20499  0.81603  0.57919  Biso   1.000  C
  H65      1.0000 0.74525  0.74278  0.64233  Biso   1.000  H
  C59      1.0000 0.86720  0.75271  0.72399  Biso   1.000  C
  C60      1.0000 0.95410  0.69550  0.74963  Biso   1.000  C
  H66      1.0000 0.98464  0.57727  0.71588  Biso   1.000  H
  C61      1.0000 0.42873  0.74720  0.84561  Biso   1.000  C
  H67      1.0000 0.33460  0.57879  0.85742  Biso   1.000  H
  O5       1.0000 0.27322  0.89279  0.58191  Biso   1.000  O
  H68      1.0000 0.18140  0.80132  0.53349  Biso   1.000  H
  H69      1.0000 0.12575  0.82112  0.60102  Biso   1.000  H
  C62      1.0000 0.83499  0.83637  0.74750  Biso   1.000  C
  H70      1.0000 0.01245  0.70150  0.78692  Biso   1.000  H
  C63      1.0000 0.51186  0.80271  0.80841  Biso   1.000  C
  C64      1.0000 0.29697  0.79127  0.85480  Biso   1.000  C
  C65      1.0000 0.49389  0.72401  0.91349  Biso   1.000  C
  C66      1.0000 0.22484  0.94812  0.54199  Biso   1.000  C
  C67      1.0000 0.69070  0.83952  0.75961  Biso   1.000  C
  C68      1.0000 0.92225  0.85477  0.81182  Biso   1.000  C
  C69      1.0000 0.85640  0.90012  0.69439  Biso   1.000  C
  N8       1.0000 0.64269  0.78958  0.80688  Biso   1.000  N
  C70      1.0000 0.47844  0.86058  0.76242  Biso   1.000  C
  H71      1.0000 0.31346  0.83813  0.88222  Biso   1.000  H
  H72      1.0000 0.25666  0.80768  0.81242  Biso   1.000  H
  H73      1.0000 0.24020  0.75501  0.87521  Biso   1.000  H
  H74      1.0000 0.51193  0.77208  0.93928  Biso   1.000  H
  H75      1.0000 0.43713  0.68939  0.93553  Biso   1.000  H
  H76      1.0000 0.57372  0.69599  0.90821  Biso   1.000  H
  O6       1.0000 0.12860  0.93753  0.50701  Biso   1.000  O
  C71      1.0000 0.30710  0.02167  0.53991  Biso   1.000  C
  C72      1.0000 0.58948  0.88310  0.73130  Biso   1.000  C
  H77      1.0000 0.90236  0.90780  0.82748  Biso   1.000  H
  H78      1.0000 0.90657  0.81542  0.84482  Biso   1.000  H
  H79      1.0000 0.01181  0.85278  0.80308  Biso   1.000  H
  C73      1.0000 0.84488  0.98838  0.71618  Biso   1.000  C
  H80      1.0000 0.79373  0.89079  0.65670  Biso   1.000  H
  H81      1.0000 0.94229  0.89212  0.67982  Biso   1.000  H
  H82      1.0000 0.68826  0.75580  0.83139  Biso   1.000  H
  H83      1.0000 0.39553  0.88189  0.75289  Biso   1.000  H
  C74      1.0000 0.25981  0.08360  0.50173  Biso   1.000  C
  C75      1.0000 0.43169  0.02712  0.57380  Biso   1.000  C
  H84      1.0000 0.59274  0.92088  0.69761  Biso   1.000  H
  H85      1.0000 0.77490  0.99183  0.74478  Biso   1.000  H
  C76      1.0000 0.82061  0.05000  0.66302  Biso   1.000  C
  H86      1.0000 0.92467  0.00303  0.74261  Biso   1.000  H
  H87      1.0000 0.17793  0.07918  0.47871  Biso   1.000  H
  C77      1.0000 0.33044  0.15291  0.49639  Biso   1.000  C
  H88      1.0000 0.46472  0.98402  0.59959  Biso   1.000  H
  C78      1.0000 0.50435  0.09571  0.56901  Biso   1.000  C
  O7       1.0000 0.68646  0.04189  0.63240  Biso   1.000  O
  H89      1.0000 0.88117  0.04231  0.62993  Biso   1.000  H
  H90      1.0000 0.83363  0.10388  0.68140  Biso   1.000  H
  H91      1.0000 0.29653  0.19523  0.47001  Biso   1.000  H
  C79      1.0000 0.45202  0.16042  0.53018  Biso   1.000  C
  C80      1.0000 0.63783  0.10921  0.60231  Biso   1.000  C
  H92      1.0000 0.49908  0.20800  0.52722  Biso   1.000  H
  O8       1.0000 0.69240  0.17277  0.60172  Biso   1.000  O
  C81      1.0000 0.57797  0.35480  0.68822  Biso   1.000  C
  C82      1.0000 0.66522  0.33640  0.75249  Biso   1.000  C
  H93      1.0000 0.59786  0.40777  0.67251  Biso   1.000  H
  H94      1.0000 0.59375  0.31539  0.65522  Biso   1.000  H
  H95      1.0000 0.48831  0.35281  0.69691  Biso   1.000  H
  C83      1.0000 0.80951  0.33949  0.74039  Biso   1.000  C
  C84      1.0000 0.63301  0.25268  0.77601  Biso   1.000  C
  C85      1.0000 0.64381  0.40008  0.80560  Biso   1.000  C
  N9       1.0000 0.85753  0.28961  0.69311  Biso   1.000  N
  C86      1.0000 0.91074  0.38307  0.76870  Biso   1.000  C
  N10      1.0000 0.69621  0.21878  0.83198  Biso   1.000  N
  C87      1.0000 0.54612  0.19547  0.75042  Biso   1.000  C
  C88      1.0000 0.65533  0.48841  0.78381  Biso   1.000  C
  H96      1.0000 0.70649  0.39082  0.84329  Biso   1.000  H
  H97      1.0000 0.55793  0.39209  0.82022  Biso   1.000  H
  H98      1.0000 0.81205  0.25583  0.66861  Biso   1.000  H
  C89      1.0000 0.98845  0.30268  0.69158  Biso   1.000  C
  H99      1.0000 0.90757  0.42091  0.80239  Biso   1.000  H
  C90      1.0000 0.02178  0.36062  0.73762  Biso   1.000  C
  H100     1.0000 0.75507  0.24281  0.85772  Biso   1.000  H
  C91      1.0000 0.65231  0.14147  0.84122  Biso   1.000  C
  H101     1.0000 0.48767  0.20153  0.71312  Biso   1.000  H
  C92      1.0000 0.56093  0.12561  0.79093  Biso   1.000  C
  C93      1.0000 0.67961  0.54997  0.83702  Biso   1.000  C
  H102     1.0000 0.57564  0.50300  0.75738  Biso   1.000  H
  H103     1.0000 0.72532  0.49180  0.75521  Biso   1.000  H
  C94      1.0000 0.07139  0.24717  0.65438  Biso   1.000  C
  H104     1.0000 0.10459  0.38192  0.74711  Biso   1.000  H
  C95      1.0000 0.69605  0.09432  0.90302  Biso   1.000  C
  H105     1.0000 0.51557  0.07730  0.78411  Biso   1.000  H
  O9       1.0000 0.81376  0.54192  0.86760  Biso   1.000  O
  H106     1.0000 0.61905  0.54228  0.87012  Biso   1.000  H
  H107     1.0000 0.66658  0.60391  0.81859  Biso   1.000  H
  C96      1.0000 0.10361  0.17422  0.69751  Biso   1.000  C
  C97      1.0000 0.20325  0.29130  0.64519  Biso   1.000  C
  C98      1.0000 0.00632  0.22398  0.58650  Biso   1.000  C
  C99      1.0000 0.84040  0.10721  0.92159  Biso   1.000  C
  C100     1.0000 0.62327  0.12531  0.96042  Biso   1.000  C
  C101     1.0000 0.66765  0.00418  0.89260  Biso   1.000  C
  C102     1.0000 0.86247  0.60918  0.89768  Biso   1.000  C
  N11      1.0000 0.10107  0.17780  0.76450  Biso   1.000  N
  C103     1.0000 0.15364  0.09922  0.68422  Biso   1.000  C
  H108     1.0000 0.18676  0.33810  0.61782  Biso   1.000  H
  H109     1.0000 0.24347  0.30771  0.68763  Biso   1.000  H
  H110     1.0000 0.26001  0.25498  0.62479  Biso   1.000  H
  H111     1.0000 0.98828  0.27211  0.56071  Biso   1.000  H
  H112     1.0000 0.92649  0.19602  0.59179  Biso   1.000  H
  H113     1.0000 0.06299  0.18942  0.56452  Biso   1.000  H
  N12      1.0000 0.93070  0.09970  0.87590  Biso   1.000  N
  C104     1.0000 0.90947  0.12192  0.98009  Biso   1.000  C
  H114     1.0000 0.65082  0.09541  0.99970  Biso   1.000  H
  H115     1.0000 0.64189  0.18173  0.96759  Biso   1.000  H
  H116     1.0000 0.53147  0.11823  0.94990  Biso   1.000  H
  H117     1.0000 0.69539  0.97512  0.93241  Biso   1.000  H
  H118     1.0000 0.57605  0.99649  0.88212  Biso   1.000  H
  H119     1.0000 0.71372  0.98438  0.85703  Biso   1.000  H
  O10      1.0000 0.80783  0.67280  0.89833  Biso   1.000  O
  C105     1.0000 0.99586  0.59568  0.93098  Biso   1.000  C
  H120     1.0000 0.07132  0.21829  0.78500  Biso   1.000  H
  C106     1.0000 0.15145  0.10939  0.79522  Biso   1.000  C
  C107     1.0000 0.18387  0.05830  0.74572  Biso   1.000  C
  H121     1.0000 0.16562  0.07882  0.64262  Biso   1.000  H
  H122     1.0000 0.91176  0.09038  0.83450  Biso   1.000  H
  C108     1.0000 0.05434  0.10933  0.90509  Biso   1.000  C
  H123     1.0000 0.87417  0.12973  0.02010  Biso   1.000  H
  C109     1.0000 0.04266  0.12349  0.97129  Biso   1.000  C
  C110     1.0000 0.04829  0.66039  0.96981  Biso   1.000  C
  C111     1.0000 0.06843  0.52709  0.92619  Biso   1.000  C
  C112     1.0000 0.17652  0.10243  0.86982  Biso   1.000  C
  H124     1.0000 0.21904  0.00672  0.75131  Biso   1.000  H
  H125     1.0000 0.11003  0.13251  0.00390  Biso   1.000  H
  H126     1.0000 0.00104  0.70797  0.97282  Biso   1.000  H
  C113     1.0000 0.16958  0.65288  0.00360  Biso   1.000  C
  C114     1.0000 0.19303  0.52170  0.96013  Biso   1.000  C
  H127     1.0000 0.03549  0.48399  0.90040  Biso   1.000  H
  C115     1.0000 0.23995  0.02022  0.88662  Biso   1.000  C
  C116     1.0000 0.27207  0.17059  0.89512  Biso   1.000  C
  C117     1.0000 0.24041  0.58357  0.99832  Biso   1.000  C
  H128     1.0000 0.20349  0.69520  0.02998  Biso   1.000  H
  C118     1.0000 0.27537  0.44809  0.95800  Biso   1.000  C
  H129     1.0000 0.18087  0.97772  0.87190  Biso   1.000  H
  H130     1.0000 0.31805  0.01532  0.86488  Biso   1.000  H
  H131     1.0000 0.26027  0.01622  0.93350  Biso   1.000  H
  H132     1.0000 0.34734  0.16793  0.87002  Biso   1.000  H
  H133     1.0000 0.30156  0.15909  0.94081  Biso   1.000  H
  C119     1.0000 0.22008  0.25788  0.89121  Biso   1.000  C
  H134     1.0000 0.32209  0.57921  0.02129  Biso   1.000  H
  O11      1.0000 0.22699  0.39282  0.91809  Biso   1.000  O
  O12      1.0000 0.37161  0.43750  0.99298  Biso   1.000  O
  H135     1.0000 0.13722  0.25867  0.91018  Biso   1.000  H
  H136     1.0000 0.20315  0.27217  0.84492  Biso   1.000  H
  C120     1.0000 0.29512  0.31600  0.92080  Biso   1.000  C
  H137     1.0000 0.31891  0.30129  0.96650  Biso   1.000  H
  H138     1.0000 0.37438  0.32108  0.89902  Biso   1.000  H
  C121     1.0000 0.42211  0.64520  0.31183  Biso   1.000  C
  C122     1.0000 0.33496  0.66360  0.24750  Biso   1.000  C
  H139     1.0000 0.40222  0.59223  0.32749  Biso   1.000  H
  H140     1.0000 0.40644  0.68461  0.34483  Biso   1.000  H
  H141     1.0000 0.51187  0.64719  0.30308  Biso   1.000  H
  C123     1.0000 0.35637  0.59992  0.19440  Biso   1.000  C
  C124     1.0000 0.19066  0.66051  0.25961  Biso   1.000  C
  C125     1.0000 0.36716  0.74732  0.22399  Biso   1.000  C
  C126     1.0000 0.34484  0.51159  0.21618  Biso   1.000  C
  H142     1.0000 0.29359  0.60918  0.15670  Biso   1.000  H
  H143     1.0000 0.44225  0.60791  0.17982  Biso   1.000  H
  N13      1.0000 0.14265  0.71039  0.30689  Biso   1.000  N
  C127     1.0000 0.08944  0.61693  0.23130  Biso   1.000  C
  N14      1.0000 0.30397  0.78122  0.16802  Biso   1.000  N
  C128     1.0000 0.45406  0.80453  0.24958  Biso   1.000  C
  C129     1.0000 0.32056  0.45003  0.16298  Biso   1.000  C
  H144     1.0000 0.42454  0.49700  0.24261  Biso   1.000  H
  H145     1.0000 0.27486  0.50820  0.24479  Biso   1.000  H
  H146     1.0000 0.18813  0.74417  0.33139  Biso   1.000  H
  C130     1.0000 0.01172  0.69732  0.30842  Biso   1.000  C
  H147     1.0000 0.09260  0.57909  0.19761  Biso   1.000  H
  C131     1.0000 0.97830  0.63938  0.26242  Biso   1.000  C
  H148     1.0000 0.24511  0.75719  0.14228  Biso   1.000  H
  C132     1.0000 0.34786  0.85853  0.15878  Biso   1.000  C
  H149     1.0000 0.51240  0.79847  0.28688  Biso   1.000  H
  C133     1.0000 0.43925  0.87439  0.20912  Biso   1.000  C
  O13      1.0000 0.18642  0.45808  0.13240  Biso   1.000  O
  H150     1.0000 0.38112  0.45772  0.12988  Biso   1.000  H
  H151     1.0000 0.33349  0.39609  0.18140  Biso   1.000  H
  C134     1.0000 0.92859  0.75283  0.34562  Biso   1.000  C
  H152     1.0000 0.89539  0.61808  0.25289  Biso   1.000  H
  C135     1.0000 0.30412  0.90568  0.09698  Biso   1.000  C
  H153     1.0000 0.48451  0.92270  0.21589  Biso   1.000  H
  C136     1.0000 0.13770  0.39082  0.10231  Biso   1.000  C
  C137     1.0000 0.89647  0.82578  0.30249  Biso   1.000  C
  C138     1.0000 0.79693  0.70870  0.35481  Biso   1.000  C
  C139     1.0000 0.99385  0.77602  0.41349  Biso   1.000  C
  C140     1.0000 0.15967  0.89279  0.07840  Biso   1.000  C
  C141     1.0000 0.37691  0.87469  0.03962  Biso   1.000  C
  C142     1.0000 0.33253  0.99582  0.10740  Biso   1.000  C
  O14      1.0000 0.19236  0.32720  0.10172  Biso   1.000  O
  C143     1.0000 0.00432  0.40432  0.06901  Biso   1.000  C
  N15      1.0000 0.89901  0.82220  0.23550  Biso   1.000  N
  C144     1.0000 0.84644  0.90078  0.31578  Biso   1.000  C
  H154     1.0000 0.81342  0.66190  0.38222  Biso   1.000  H
  H155     1.0000 0.75662  0.69229  0.31242  Biso   1.000  H
  H156     1.0000 0.74026  0.74502  0.37521  Biso   1.000  H
  H157     1.0000 0.01189  0.72789  0.43928  Biso   1.000  H
  H158     1.0000 0.07369  0.80398  0.40821  Biso   1.000  H
  H159     1.0000 0.93708  0.81058  0.43548  Biso   1.000  H
  N16      1.0000 0.06938  0.90030  0.12410  Biso   1.000  N
  C145     1.0000 0.09070  0.87808  0.01991  Biso   1.000  C
  H160     1.0000 0.34935  0.90459  0.00030  Biso   1.000  H
  H161     1.0000 0.35819  0.81827  0.03241  Biso   1.000  H
  H162     1.0000 0.46870  0.88177  0.05009  Biso   1.000  H
  H163     1.0000 0.30468  0.02488  0.06758  Biso   1.000  H
  H164     1.0000 0.42414  0.00351  0.11792  Biso   1.000  H
  H165     1.0000 0.28646  0.01562  0.14302  Biso   1.000  H
  C146     1.0000 0.95188  0.33961  0.03018  Biso   1.000  C
  C147     1.0000 0.93165  0.47291  0.07381  Biso   1.000  C
  C148     1.0000 0.84863  0.89061  0.20482  Biso   1.000  C
  H166     1.0000 0.92886  0.78171  0.21500  Biso   1.000  H
  C149     1.0000 0.81621  0.94170  0.25432  Biso   1.000  C
  H167     1.0000 0.83466  0.92118  0.35742  Biso   1.000  H
  C150     1.0000 0.94574  0.89067  0.09490  Biso   1.000  C
  H168     1.0000 0.08842  0.90962  0.16550  Biso   1.000  H
  C151     1.0000 0.95751  0.87651  0.02870  Biso   1.000  C
  H169     1.0000 0.12600  0.87027  0.97989  Biso   1.000  H
  C152     1.0000 0.83060  0.34712  0.99639  Biso   1.000  C
  H170     1.0000 0.99904  0.29203  0.02722  Biso   1.000  H
  C153     1.0000 0.80696  0.47830  0.03992  Biso   1.000  C
  H171     1.0000 0.96459  0.51601  0.09959  Biso   1.000  H
  C154     1.0000 0.82347  0.89757  0.13022  Biso   1.000  C
  H172     1.0000 0.78113  0.99328  0.24869  Biso   1.000  H
  H173     1.0000 0.89005  0.86749  0.99610  Biso   1.000  H
  H174     1.0000 0.79668  0.30480  0.97001  Biso   1.000  H
  C155     1.0000 0.75967  0.41643  0.00168  Biso   1.000  C
  C156     1.0000 0.72480  0.55191  0.04199  Biso   1.000  C
  C157     1.0000 0.72801  0.82941  0.10488  Biso   1.000  C
  C158     1.0000 0.76022  0.97978  0.11338  Biso   1.000  C
  H175     1.0000 0.67809  0.42079  0.97871  Biso   1.000  H
  O15      1.0000 0.77308  0.60718  0.08191  Biso   1.000  O
  O16      1.0000 0.62846  0.56250  0.00702  Biso   1.000  O
  C159     1.0000 0.78000  0.74212  0.10878  Biso   1.000  C
  H176     1.0000 0.65284  0.83207  0.12998  Biso   1.000  H
  H177     1.0000 0.69851  0.84091  0.05918  Biso   1.000  H
  H178     1.0000 0.68202  0.98468  0.13511  Biso   1.000  H
  H179     1.0000 0.73980  0.98378  0.06650  Biso   1.000  H
  H180     1.0000 0.81931  0.02228  0.12810  Biso   1.000  H
  C160     1.0000 0.70486  0.68400  0.07919  Biso   1.000  C
  H181     1.0000 0.86276  0.74133  0.08981  Biso   1.000  H
  H182     1.0000 0.79713  0.72783  0.15512  Biso   1.000  H
  H183     1.0000 0.68127  0.69871  0.03349  Biso   1.000  H
  H184     1.0000 0.62570  0.67892  0.10098  Biso   1.000  H
  Ne1      1.0000 0.45656  0.19840  0.33883  Biso   1.000  Ne
  He1      1.0000 0.44339  0.20966  0.37946  Biso   1.000  He
  He2      1.0000 0.42406  0.26924  0.33198  Biso   1.000  He
  Ar1      1.0000 0.48684  0.21574  0.35297  Biso   1.000  Ar
  Ne2      1.0000 0.04352  0.69840  0.16118  Biso   1.000  Ne
  He3      1.0000 0.14135  0.83222  0.23806  Biso   1.000  He
  He4      1.0000 0.05443  0.71509  0.12503  Biso   1.000  He
  Ar2      1.0000 0.01329  0.71571  0.14705  Biso   1.000  Ar
  Ne3      1.0000 0.54359  0.80160  0.66118  Biso   1.000  Ne
  He5      1.0000 0.62175  0.69028  0.72439  Biso   1.000  He
  He6      1.0000 0.55436  0.78436  0.62549  Biso   1.000  He
  Ar3      1.0000 0.51334  0.78428  0.64705  Biso   1.000  Ar
  Ne4      1.0000 0.95660  0.30160  0.83883  Biso   1.000  Ne
  He7      1.0000 0.94374  0.28966  0.87886  Biso   1.000  He
  He8      1.0000 0.92413  0.23075  0.83195  Biso   1.000  He
  Ar4      1.0000 0.98684  0.28429  0.85295  Biso   1.000  Ar
