data_image0
_cell_length_a       6.917
_cell_length_b       7.569
_cell_length_c       15.812
_cell_angle_alpha    82.91
_cell_angle_beta     81.64
_cell_angle_gamma    71.09

_symmetry_space_group_name_H-M    "P 1"
_symmetry_int_tables_number       1

loop_
  _symmetry_equiv_pos_as_xyz
  'x, y, z'

loop_
  _atom_site_label
  _atom_site_occupancy
  _atom_site_fract_x
  _atom_site_fract_y
  _atom_site_fract_z
  _atom_site_thermal_displace_type
  _atom_site_B_iso_or_equiv
  _atom_site_type_symbol
  C1       1.0000 0.63022  0.84464  0.92907  Biso   1.000  C
  C2       1.0000 0.65683  0.87465  0.83351  Biso   1.000  C
  C3       1.0000 0.57098  0.01794  0.96287  Biso   1.000  C
  C4       1.0000 0.63862  0.67826  0.97955  Biso   1.000  C
  N1       1.0000 0.60338  0.07089  0.81453  Biso   1.000  N
  O1       1.0000 0.70778  0.76035  0.78130  Biso   1.000  O
  C5       1.0000 0.56038  0.16516  0.88899  Biso   1.000  C
  C6       1.0000 0.51379  0.04073  0.04971  Biso   1.000  C
  H1       1.0000 0.68387  0.55809  0.95639  Biso   1.000  H
  C7       1.0000 0.57754  0.70074  0.06581  Biso   1.000  C
  C8       1.0000 0.55333  0.15966  0.72858  Biso   1.000  C
  O2       1.0000 0.51988  0.33286  0.89149  Biso   1.000  O
  C9       1.0000 0.51445  0.87566  0.09987  Biso   1.000  C
  H2       1.0000 0.47706  0.15988  0.07312  Biso   1.000  H
  C10      1.0000 0.52919  0.56114  0.13450  Biso   1.000  C
  C11      1.0000 0.32552  0.28383  0.73083  Biso   1.000  C
  H3       1.0000 0.57103  0.06061  0.69273  Biso   1.000  H
  C12      1.0000 0.69273  0.27257  0.68587  Biso   1.000  C
  C13      1.0000 0.42186  0.85196  0.19062  Biso   1.000  C
  N2       1.0000 0.42419  0.66335  0.20434  Biso   1.000  N
  O3       1.0000 0.56671  0.39434  0.13084  Biso   1.000  O
  N3       1.0000 0.18912  0.18911  0.78515  Biso   1.000  N
  H4       1.0000 0.31415  0.39409  0.75789  Biso   1.000  H
  C14      1.0000 0.27077  0.34822  0.63982  Biso   1.000  C
  H5       1.0000 0.67664  0.37497  0.71941  Biso   1.000  H
  H6       1.0000 0.83359  0.19454  0.68330  Biso   1.000  H
  C15      1.0000 0.63698  0.34774  0.59550  Biso   1.000  C
  O4       1.0000 0.35254  0.96760  0.24231  Biso   1.000  O
  C16      1.0000 0.27272  0.60447  0.26835  Biso   1.000  C
  C17      1.0000 0.20439  0.99942  0.78457  Biso   1.000  C
  C18      1.0000 0.07931  0.26403  0.86160  Biso   1.000  C
  C19      1.0000 0.40966  0.46254  0.59627  Biso   1.000  C
  H7       1.0000 0.12875  0.42316  0.64091  Biso   1.000  H
  H8       1.0000 0.29174  0.24138  0.60852  Biso   1.000  H
  H9       1.0000 0.71958  0.42548  0.57068  Biso   1.000  H
  H10      1.0000 0.66731  0.24491  0.56048  Biso   1.000  H
  C20      1.0000 0.12886  0.53557  0.22313  Biso   1.000  C
  H11      1.0000 0.18877  0.71275  0.29708  Biso   1.000  H
  C21      1.0000 0.36715  0.45288  0.33691  Biso   1.000  C
  O5       1.0000 0.27526  0.90423  0.72467  Biso   1.000  O
  C22      1.0000 0.12236  0.94306  0.87359  Biso   1.000  C
  C23      1.0000 0.04830  0.10275  0.91952  Biso   1.000  C
  O6       1.0000 0.03123  0.42596  0.87610  Biso   1.000  O
  H12      1.0000 0.38257  0.57224  0.62641  Biso   1.000  H
  H13      1.0000 0.37794  0.50300  0.53848  Biso   1.000  H
  N4       1.0000 0.06283  0.65875  0.14553  Biso   1.000  N
  C24      1.0000 0.95126  0.51023  0.28778  Biso   1.000  C
  H14      1.0000 0.20723  0.41395  0.20498  Biso   1.000  H
  C25      1.0000 0.19469  0.41636  0.40239  Biso   1.000  C
  H15      1.0000 0.45824  0.49257  0.36500  Biso   1.000  H
  H16      1.0000 0.44512  0.33955  0.31068  Biso   1.000  H
  C26      1.0000 0.14187  0.76344  0.91214  Biso   1.000  C
  C27      1.0000 0.98618  0.09570  0.00693  Biso   1.000  C
  C28      1.0000 0.11047  0.58865  0.06395  Biso   1.000  C
  C29      1.0000 0.99177  0.85346  0.13982  Biso   1.000  C
  H17      1.0000 0.86046  0.46936  0.26008  Biso   1.000  H
  H18      1.0000 0.87480  0.62763  0.31081  Biso   1.000  H
  C30      1.0000 0.03940  0.36442  0.36000  Biso   1.000  C
  H19      1.0000 0.12574  0.52747  0.43170  Biso   1.000  H
  H20      1.0000 0.25277  0.31729  0.44428  Biso   1.000  H
  H21      1.0000 0.19129  0.65396  0.88071  Biso   1.000  H
  C31      1.0000 0.08516  0.75666  0.00039  Biso   1.000  C
  C32      1.0000 0.01182  0.91626  0.04599  Biso   1.000  C
  H22      1.0000 0.92926  0.20595  0.03791  Biso   1.000  H
  O7       1.0000 0.16333  0.42508  0.05157  Biso   1.000  O
  O8       1.0000 0.93136  0.95139  0.19928  Biso   1.000  O
  H23      1.0000 0.92906  0.35279  0.40252  Biso   1.000  H
  H24      1.0000 0.10441  0.24506  0.33698  Biso   1.000  H
  Ne1      1.0000 0.31966  0.89541  0.98741  Biso   1.000  Ne
  He1      1.0000 0.27444  0.07866  0.98414  Biso   1.000  He
  He2      1.0000 0.38853  0.81874  0.90121  Biso   1.000  He
  Ar1      1.0000 0.31846  0.89609  0.98778  Biso   1.000  Ar
