data_image0
_cell_length_a       12.673
_cell_length_b       12.602
_cell_length_c       23.356
_cell_angle_alpha    90
_cell_angle_beta     105.14
_cell_angle_gamma    90

_symmetry_space_group_name_H-M    "P 1"
_symmetry_int_tables_number       1

loop_
  _symmetry_equiv_pos_as_xyz
  'x, y, z'

loop_
  _atom_site_label
  _atom_site_occupancy
  _atom_site_fract_x
  _atom_site_fract_y
  _atom_site_fract_z
  _atom_site_thermal_displace_type
  _atom_site_B_iso_or_equiv
  _atom_site_type_symbol
  O1       1.0000 0.24248  0.74210  0.52179  Biso   1.000  O
  C1       1.0000 0.20088  0.74996  0.46750  Biso   1.000  C
  N1       1.0000 0.24142  0.81106  0.42958  Biso   1.000  N
  N2       1.0000 0.10619  0.70235  0.43668  Biso   1.000  N
  C2       1.0000 0.18164  0.79376  0.36801  Biso   1.000  C
  C3       1.0000 0.35016  0.85526  0.44599  Biso   1.000  C
  C4       1.0000 0.08579  0.71766  0.37201  Biso   1.000  C
  C5       1.0000 0.05571  0.61585  0.46049  Biso   1.000  C
  C6       1.0000 0.05571  0.61578  0.46049  Biso   1.000  C
  N3       1.0000 0.12438  0.88787  0.33905  Biso   1.000  N
  H1       1.0000 0.22812  0.76226  0.34491  Biso   1.000  H
  H2       1.0000 0.39179  0.82154  0.48232  Biso   1.000  H
  N4       1.0000 0.35028  0.96913  0.45508  Biso   1.000  N
  H3       1.0000 0.38627  0.83971  0.41512  Biso   1.000  H
  H4       1.0000 0.38627  0.83963  0.41512  Biso   1.000  H
  N5       1.0000 0.99098  0.77837  0.34601  Biso   1.000  N
  H5       1.0000 0.08765  0.65061  0.35111  Biso   1.000  H
  H6       1.0000 0.08757  0.65061  0.35111  Biso   1.000  H
  H7       1.0000 0.08700  0.54880  0.46812  Biso   1.000  H
  N6       1.0000 0.95433  0.64299  0.47101  Biso   1.000  N
  C7       1.0000 0.01262  0.87518  0.32441  Biso   1.000  C
  C8       1.0000 0.17924  0.97500  0.32140  Biso   1.000  C
  C9       1.0000 0.17924  0.97492  0.32140  Biso   1.000  C
  C10      1.0000 0.17916  0.97500  0.32140  Biso   1.000  C
  C11      1.0000 0.17916  0.97492  0.32140  Biso   1.000  C
  C12      1.0000 0.33244  0.04817  0.40820  Biso   1.000  C
  C13      1.0000 0.33236  0.04817  0.40820  Biso   1.000  C
  C14      1.0000 0.37189  0.01214  0.50982  Biso   1.000  C
  C15      1.0000 0.88065  0.73655  0.33351  Biso   1.000  C
  C16      1.0000 0.85084  0.64514  0.42519  Biso   1.000  C
  C17      1.0000 0.85084  0.64506  0.42519  Biso   1.000  C
  C18      1.0000 0.93818  0.65585  0.52729  Biso   1.000  C
  O2       1.0000 0.94639  0.93803  0.29682  Biso   1.000  O
  H8       1.0000 0.23877  0.94810  0.30672  Biso   1.000  H
  H9       1.0000 0.23877  0.94802  0.30672  Biso   1.000  H
  N7       1.0000 0.22280  0.05118  0.36828  Biso   1.000  N
  H10      1.0000 0.12870  0.01127  0.28902  Biso   1.000  H
  H11      1.0000 0.38751  0.04174  0.38571  Biso   1.000  H
  C19      1.0000 0.34430  0.15442  0.44120  Biso   1.000  C
  N8       1.0000 0.36732  0.12165  0.50294  Biso   1.000  N
  O3       1.0000 0.39372  0.96540  0.55617  Biso   1.000  O
  O4       1.0000 0.39372  0.96532  0.55617  Biso   1.000  O
  H12      1.0000 0.83324  0.78019  0.30321  Biso   1.000  H
  N9       1.0000 0.83710  0.73346  0.38500  Biso   1.000  N
  H13      1.0000 0.88015  0.66537  0.31772  Biso   1.000  H
  H14      1.0000 0.83735  0.57761  0.40372  Biso   1.000  H
  C20      1.0000 0.76434  0.66537  0.46089  Biso   1.000  C
  N10      1.0000 0.82901  0.67251  0.52148  Biso   1.000  N
  O5       1.0000 0.01041  0.65053  0.57342  Biso   1.000  O
  O6       1.0000 0.01041  0.65045  0.57342  Biso   1.000  O
  C21      1.0000 0.17424  0.14593  0.37329  Biso   1.000  C
  C22      1.0000 0.17424  0.14585  0.37329  Biso   1.000  C
  N11      1.0000 0.23961  0.20521  0.41632  Biso   1.000  N
  N12      1.0000 0.23961  0.20513  0.41632  Biso   1.000  N
  H15      1.0000 0.40446  0.19656  0.43388  Biso   1.000  H
  C23      1.0000 0.38405  0.19457  0.55262  Biso   1.000  C
  C24      1.0000 0.75531  0.79821  0.39081  Biso   1.000  C
  C25      1.0000 0.75531  0.79829  0.39081  Biso   1.000  C
  N13      1.0000 0.71566  0.76639  0.43632  Biso   1.000  N
  H16      1.0000 0.71001  0.60840  0.45539  Biso   1.000  H
  C26      1.0000 0.78540  0.68632  0.57218  Biso   1.000  C
  C27      1.0000 0.78540  0.68640  0.57218  Biso   1.000  C
  O7       1.0000 0.08408  0.17315  0.34353  Biso   1.000  O
  C28      1.0000 0.21460  0.31352  0.42780  Biso   1.000  C
  H17      1.0000 0.42660  0.25448  0.54512  Biso   1.000  H
  H18      1.0000 0.42634  0.15886  0.58802  Biso   1.000  H
  N14      1.0000 0.28434  0.23353  0.56366  Biso   1.000  N
  O8       1.0000 0.72163  0.87613  0.35888  Biso   1.000  O
  C29      1.0000 0.61605  0.80543  0.44741  Biso   1.000  C
  C30      1.0000 0.61605  0.80535  0.44741  Biso   1.000  C
  N15      1.0000 0.76039  0.79479  0.58367  Biso   1.000  N
  H19      1.0000 0.71927  0.64434  0.56628  Biso   1.000  H
  H20      1.0000 0.83790  0.65886  0.60700  Biso   1.000  H
  N16      1.0000 0.17099  0.32749  0.47850  Biso   1.000  N
  H21      1.0000 0.28073  0.35558  0.43370  Biso   1.000  H
  H22      1.0000 0.16210  0.34106  0.39299  Biso   1.000  H
  C31      1.0000 0.23574  0.33455  0.53909  Biso   1.000  C
  C32      1.0000 0.24472  0.20163  0.60922  Biso   1.000  C
  N17      1.0000 0.63268  0.87827  0.49704  Biso   1.000  N
  H23      1.0000 0.57342  0.74544  0.45491  Biso   1.000  H
  H24      1.0000 0.57369  0.84106  0.41201  Biso   1.000  H
  C33      1.0000 0.65570  0.84550  0.55879  Biso   1.000  C
  C34      1.0000 0.82584  0.85407  0.62669  Biso   1.000  C
  C35      1.0000 0.06182  0.34407  0.47269  Biso   1.000  C
  C36      1.0000 0.14924  0.35486  0.57480  Biso   1.000  C
  H25      1.0000 0.28999  0.39153  0.54459  Biso   1.000  H
  O9       1.0000 0.27839  0.12379  0.64115  Biso   1.000  O
  N18      1.0000 0.16292  0.26647  0.61503  Biso   1.000  N
  C37      1.0000 0.62813  0.98770  0.49021  Biso   1.000  C
  C38      1.0000 0.62813  0.98778  0.49021  Biso   1.000  C
  H26      1.0000 0.59554  0.80336  0.56610  Biso   1.000  H
  C39      1.0000 0.66764  0.95175  0.59179  Biso   1.000  C
  N19      1.0000 0.77720  0.94882  0.63171  Biso   1.000  N
  N20      1.0000 0.77720  0.94874  0.63171  Biso   1.000  N
  O10      1.0000 0.91592  0.82669  0.65646  Biso   1.000  O
  O11      1.0000 0.91592  0.82677  0.65646  Biso   1.000  O
  O12      1.0000 0.98959  0.34947  0.42656  Biso   1.000  O
  N21      1.0000 0.04569  0.35693  0.52902  Biso   1.000  N
  H27      1.0000 0.16275  0.42239  0.59631  Biso   1.000  H
  H28      1.0000 0.16275  0.42231  0.59631  Biso   1.000  H
  C40      1.0000 0.11945  0.26337  0.66652  Biso   1.000  C
  O13      1.0000 0.60635  0.03460  0.44382  Biso   1.000  O
  N22      1.0000 0.64975  0.03079  0.54495  Biso   1.000  N
  O14      1.0000 0.60627  0.03460  0.44382  Biso   1.000  O
  H29      1.0000 0.61251  0.95826  0.61432  Biso   1.000  H
  C41      1.0000 0.82084  0.02500  0.67859  Biso   1.000  C
  C42      1.0000 0.94429  0.38415  0.53949  Biso   1.000  C
  N23      1.0000 0.00902  0.22155  0.65397  Biso   1.000  N
  H30      1.0000 0.11995  0.33455  0.68231  Biso   1.000  H
  H31      1.0000 0.16678  0.21973  0.69682  Biso   1.000  H
  C43      1.0000 0.64984  0.14466  0.55400  Biso   1.000  C
  H32      1.0000 0.87132  0.98873  0.71101  Biso   1.000  H
  H33      1.0000 0.87132  0.98865  0.71101  Biso   1.000  H
  N24      1.0000 0.87562  0.11213  0.66094  Biso   1.000  N
  H34      1.0000 0.76125  0.05190  0.69331  Biso   1.000  H
  N25      1.0000 0.87562  0.11205  0.66094  Biso   1.000  N
  N26      1.0000 0.89383  0.29757  0.56335  Biso   1.000  N
  H35      1.0000 0.91302  0.45120  0.53191  Biso   1.000  H
  H36      1.0000 0.91302  0.45112  0.53191  Biso   1.000  H
  C44      1.0000 0.91423  0.28226  0.62802  Biso   1.000  C
  C45      1.0000 0.98740  0.12482  0.67562  Biso   1.000  C
  C46      1.0000 0.98740  0.12474  0.67562  Biso   1.000  C
  N27      1.0000 0.75858  0.18886  0.57041  Biso   1.000  N
  H37      1.0000 0.60823  0.17838  0.51771  Biso   1.000  H
  H38      1.0000 0.61375  0.16029  0.58491  Biso   1.000  H
  C47      1.0000 0.81846  0.20616  0.63202  Biso   1.000  C
  C48      1.0000 0.81838  0.20616  0.63202  Biso   1.000  C
  C49      1.0000 0.79912  0.24996  0.53248  Biso   1.000  C
  H39      1.0000 0.91245  0.34931  0.64892  Biso   1.000  H
  O15      1.0000 0.05361  0.06189  0.70316  Biso   1.000  O
  H40      1.0000 0.77190  0.23766  0.65512  Biso   1.000  H
  O16      1.0000 0.75754  0.25782  0.47824  Biso   1.000  O
  C50      1.0000 0.38059  0.76337  0.83348  Biso   1.000  C
  N28      1.0000 0.49101  0.72155  0.84598  Biso   1.000  N
  N29      1.0000 0.49103  0.72155  0.84603  Biso   1.000  N
  N30      1.0000 0.33713  0.76647  0.88497  Biso   1.000  N
  H41      1.0000 0.33319  0.71981  0.80318  Biso   1.000  H
  H42      1.0000 0.38010  0.83455  0.81769  Biso   1.000  H
  C51      1.0000 0.51265  0.62474  0.82438  Biso   1.000  C
  C52      1.0000 0.58582  0.78226  0.87198  Biso   1.000  C
  C53      1.0000 0.58584  0.78226  0.87202  Biso   1.000  C
  C54      1.0000 0.38062  0.76337  0.83352  Biso   1.000  C
  C55      1.0000 0.35081  0.85486  0.92520  Biso   1.000  C
  C56      1.0000 0.25533  0.70163  0.89078  Biso   1.000  C
  N31      1.0000 0.62443  0.61205  0.83907  Biso   1.000  N
  O17      1.0000 0.44634  0.56189  0.79679  Biso   1.000  O
  O18      1.0000 0.44644  0.56189  0.79684  Biso   1.000  O
  C57      1.0000 0.68159  0.70616  0.86798  Biso   1.000  C
  N32      1.0000 0.60622  0.79757  0.93665  Biso   1.000  N
  H43      1.0000 0.58760  0.84939  0.85109  Biso   1.000  H
  N33      1.0000 0.45428  0.85693  0.97098  Biso   1.000  N
  N34      1.0000 0.45430  0.85693  0.97102  Biso   1.000  N
  H44      1.0000 0.33730  0.92239  0.90369  Biso   1.000  H
  C58      1.0000 0.26429  0.83455  0.96086  Biso   1.000  C
  C59      1.0000 0.26431  0.83455  0.96091  Biso   1.000  C
  N35      1.0000 0.21571  0.73353  0.93634  Biso   1.000  N
  O19      1.0000 0.22166  0.62379  0.85885  Biso   1.000  O
  C60      1.0000 0.67921  0.52500  0.82141  Biso   1.000  C
  N36      1.0000 0.74139  0.68886  0.92959  Biso   1.000  N
  H45      1.0000 0.72807  0.73766  0.84488  Biso   1.000  H
  H46      1.0000 0.72817  0.73766  0.84492  Biso   1.000  H
  C61      1.0000 0.70093  0.74996  0.96752  Biso   1.000  C
  C62      1.0000 0.55566  0.88415  0.96047  Biso   1.000  C
  C63      1.0000 0.55576  0.88415  0.96051  Biso   1.000  C
  C64      1.0000 0.43821  0.84407  0.02726  Biso   1.000  C
  C65      1.0000 0.43823  0.84407  0.02731  Biso   1.000  C
  N37      1.0000 0.32906  0.82749  0.02150  Biso   1.000  N
  H47      1.0000 0.20996  0.89153  0.95536  Biso   1.000  H
  H48      1.0000 0.21006  0.89153  0.95541  Biso   1.000  H
  C66      1.0000 0.11602  0.69457  0.94742  Biso   1.000  C
  N38      1.0000 0.72275  0.44882  0.86825  Biso   1.000  N
  N39      1.0000 0.72285  0.44882  0.86830  Biso   1.000  N
  H49      1.0000 0.73880  0.55190  0.80669  Biso   1.000  H
  H50      1.0000 0.62873  0.48865  0.78899  Biso   1.000  H
  C67      1.0000 0.85021  0.64466  0.94601  Biso   1.000  C
  O20      1.0000 0.74251  0.75790  0.02176  Biso   1.000  O
  H51      1.0000 0.58703  0.95120  0.96809  Biso   1.000  H
  O21      1.0000 0.51038  0.84947  0.07344  Biso   1.000  O
  O22      1.0000 0.51046  0.84947  0.07344  Biso   1.000  O
  C68      1.0000 0.28545  0.81360  0.07220  Biso   1.000  C
  N40      1.0000 0.13273  0.62165  0.99706  Biso   1.000  N
  H52      1.0000 0.07371  0.65886  0.91199  Biso   1.000  H
  H53      1.0000 0.07337  0.75448  0.95488  Biso   1.000  H
  H54      1.0000 0.07347  0.75448  0.95492  Biso   1.000  H
  C69      1.0000 0.67419  0.35407  0.87326  Biso   1.000  C
  C70      1.0000 0.67421  0.35407  0.87331  Biso   1.000  C
  C71      1.0000 0.83241  0.45175  0.90821  Biso   1.000  C
  N41      1.0000 0.85030  0.53079  0.95505  Biso   1.000  N
  H55      1.0000 0.89182  0.67838  0.98229  Biso   1.000  H
  H56      1.0000 0.88630  0.66029  0.91509  Biso   1.000  H
  N42      1.0000 0.26044  0.70521  0.08368  Biso   1.000  N
  H57      1.0000 0.21932  0.85558  0.06630  Biso   1.000  H
  H58      1.0000 0.33795  0.84106  0.10701  Biso   1.000  H
  C72      1.0000 0.12808  0.51214  0.99018  Biso   1.000  C
  C73      1.0000 0.15575  0.65450  0.05880  Biso   1.000  C
  O23      1.0000 0.58413  0.32677  0.84355  Biso   1.000  O
  N43      1.0000 0.73956  0.29479  0.91629  Biso   1.000  N
  N44      1.0000 0.73966  0.29479  0.91633  Biso   1.000  N
  C74      1.0000 0.84425  0.34550  0.94117  Biso   1.000  C
  C75      1.0000 0.84435  0.34550  0.94122  Biso   1.000  C
  H59      1.0000 0.88754  0.45826  0.88568  Biso   1.000  H
  C76      1.0000 0.87192  0.48778  0.00979  Biso   1.000  C
  C77      1.0000 0.32581  0.64585  0.12671  Biso   1.000  C
  N45      1.0000 0.14969  0.46921  0.04492  Biso   1.000  N
  O24      1.0000 0.10630  0.46540  0.94379  Biso   1.000  O
  O25      1.0000 0.10632  0.46540  0.94383  Biso   1.000  O
  C78      1.0000 0.16761  0.54817  0.09180  Biso   1.000  C
  H60      1.0000 0.09549  0.69656  0.06607  Biso   1.000  H
  H61      1.0000 0.09551  0.69656  0.06612  Biso   1.000  H
  C79      1.0000 0.71455  0.18640  0.92778  Biso   1.000  C
  C80      1.0000 0.71465  0.18640  0.92782  Biso   1.000  C
  H62      1.0000 0.90451  0.30336  0.93390  Biso   1.000  H
  N46      1.0000 0.86727  0.37827  0.00291  Biso   1.000  N
  N47      1.0000 0.86737  0.37827  0.00296  Biso   1.000  N
  O26      1.0000 0.89370  0.53460  0.05618  Biso   1.000  O
  N48      1.0000 0.27725  0.55118  0.13172  Biso   1.000  N
  O27      1.0000 0.41587  0.67315  0.15643  Biso   1.000  O
  O28      1.0000 0.41597  0.67315  0.15647  Biso   1.000  O
  C81      1.0000 0.14979  0.35526  0.05397  Biso   1.000  C
  C82      1.0000 0.14981  0.35526  0.05401  Biso   1.000  C
  H63      1.0000 0.11254  0.54166  0.11429  Biso   1.000  H
  N49      1.0000 0.67101  0.17251  0.97847  Biso   1.000  N
  H64      1.0000 0.78070  0.14442  0.93372  Biso   1.000  H
  H65      1.0000 0.66215  0.15886  0.89300  Biso   1.000  H
  N50      1.0000 0.67104  0.17251  0.97852  Biso   1.000  N
  C83      1.0000 0.88400  0.30535  0.05259  Biso   1.000  C
  C84      1.0000 0.32081  0.47500  0.17860  Biso   1.000  C
  N51      1.0000 0.25863  0.31106  0.07042  Biso   1.000  N
  H66      1.0000 0.11370  0.33971  0.08488  Biso   1.000  H
  H67      1.0000 0.10826  0.32162  0.01768  Biso   1.000  H
  H68      1.0000 0.11372  0.33971  0.08493  Biso   1.000  H
  C85      1.0000 0.56179  0.15593  0.97271  Biso   1.000  C
  C86      1.0000 0.73571  0.16537  0.03911  Biso   1.000  C
  N52      1.0000 0.78429  0.26639  0.06364  Biso   1.000  N
  N53      1.0000 0.78431  0.26639  0.06368  Biso   1.000  N
  H69      1.0000 0.92663  0.24552  0.04509  Biso   1.000  H
  H70      1.0000 0.92628  0.34106  0.08799  Biso   1.000  H
  N54      1.0000 0.37557  0.38787  0.16091  Biso   1.000  N
  N55      1.0000 0.37567  0.38787  0.16095  Biso   1.000  N
  H71      1.0000 0.26120  0.44810  0.19329  Biso   1.000  H
  H72      1.0000 0.37127  0.51127  0.21098  Biso   1.000  H
  H73      1.0000 0.37137  0.51127  0.21103  Biso   1.000  H
  C87      1.0000 0.29917  0.24996  0.03250  Biso   1.000  C
  C88      1.0000 0.31841  0.29376  0.13199  Biso   1.000  C
  O29      1.0000 0.48962  0.15053  0.92653  Biso   1.000  O
  O30      1.0000 0.48964  0.15053  0.92658  Biso   1.000  O
  N56      1.0000 0.54572  0.14299  0.02899  Biso   1.000  N
  H74      1.0000 0.79004  0.10840  0.04461  Biso   1.000  H
  C89      1.0000 0.64921  0.14506  0.07481  Biso   1.000  C
  C90      1.0000 0.74466  0.29829  0.10919  Biso   1.000  C
  C91      1.0000 0.74474  0.29829  0.10919  Biso   1.000  C
  C92      1.0000 0.48743  0.37518  0.17559  Biso   1.000  C
  N57      1.0000 0.39386  0.20243  0.06332  Biso   1.000  N
  O31      1.0000 0.25749  0.24210  0.97821  Biso   1.000  O
  C93      1.0000 0.41426  0.21766  0.12799  Biso   1.000  C
  H75      1.0000 0.27193  0.26226  0.15510  Biso   1.000  H
  C94      1.0000 0.44434  0.11578  0.03951  Biso   1.000  C
  N58      1.0000 0.66287  0.23346  0.11500  Biso   1.000  N
  N59      1.0000 0.66295  0.23346  0.11500  Biso   1.000  N
  H76      1.0000 0.66272  0.07761  0.09632  Biso   1.000  H
  O32      1.0000 0.77842  0.37621  0.14112  Biso   1.000  O
  N60      1.0000 0.50899  0.27837  0.15399  Biso   1.000  N
  N61      1.0000 0.50907  0.27837  0.15399  Biso   1.000  N
  O33      1.0000 0.55358  0.43811  0.20318  Biso   1.000  O
  O34      1.0000 0.55366  0.43811  0.20318  Biso   1.000  O
  H77      1.0000 0.41240  0.15061  0.14889  Biso   1.000  H
  H78      1.0000 0.41297  0.04880  0.03188  Biso   1.000  H
  H79      1.0000 0.41307  0.04880  0.03192  Biso   1.000  H
  C95      1.0000 0.61940  0.23663  0.16649  Biso   1.000  C
  H80      1.0000 0.66681  0.28019  0.19679  Biso   1.000  H
  H81      1.0000 0.61990  0.16537  0.18228  Biso   1.000  H
  Ne1      1.0000 0.99405  0.98692  0.49888  Biso   1.000  Ne
  He1      1.0000 0.15560  0.88165  0.62453  Biso   1.000  He
  He2      1.0000 0.86383  0.10360  0.38984  Biso   1.000  He
  Ar1      1.0000 0.00283  0.99876  0.50438  Biso   1.000  Ar
  Ne2      1.0000 0.50957  0.49779  0.99818  Biso   1.000  Ne
  He3      1.0000 0.65113  0.61474  0.12115  Biso   1.000  He
  He4      1.0000 0.35808  0.39231  0.88562  Biso   1.000  He
  Ar2      1.0000 0.50435  0.49448  0.99797  Biso   1.000  Ar
