data_image0
_cell_length_a       13.432
_cell_length_b       19.025
_cell_length_c       28.041
_cell_angle_alpha    90
_cell_angle_beta     90
_cell_angle_gamma    90

_symmetry_space_group_name_H-M    "P 1"
_symmetry_int_tables_number       1

loop_
  _symmetry_equiv_pos_as_xyz
  'x, y, z'

loop_
  _atom_site_label
  _atom_site_occupancy
  _atom_site_fract_x
  _atom_site_fract_y
  _atom_site_fract_z
  _atom_site_thermal_displace_type
  _atom_site_B_iso_or_equiv
  _atom_site_type_symbol
  C1       1.0000 0.46419  0.60152  0.52808  Biso   1.000  C
  C2       1.0000 0.37187  0.60999  0.50141  Biso   1.000  C
  N1       1.0000 0.54206  0.65120  0.51999  Biso   1.000  N
  O1       1.0000 0.38721  0.59001  0.45269  Biso   1.000  O
  C3       1.0000 0.28499  0.56599  0.52199  Biso   1.000  C
  C4       1.0000 0.61778  0.64809  0.48672  Biso   1.000  C
  C5       1.0000 0.30502  0.60310  0.42292  Biso   1.000  C
  C6       1.0000 0.19282  0.57382  0.49089  Biso   1.000  C
  O2       1.0000 0.25923  0.59332  0.56842  Biso   1.000  O
  C7       1.0000 0.62113  0.59648  0.45259  Biso   1.000  C
  C8       1.0000 0.68918  0.70050  0.48600  Biso   1.000  C
  C9       1.0000 0.21747  0.55869  0.43971  Biso   1.000  C
  O3       1.0000 0.27673  0.67359  0.42160  Biso   1.000  O
  O4       1.0000 0.11927  0.52720  0.50829  Biso   1.000  O
  C10      1.0000 0.28901  0.55537  0.60922  Biso   1.000  C
  C11      1.0000 0.69930  0.59679  0.41921  Biso   1.000  C
  C12      1.0000 0.76117  0.70039  0.45180  Biso   1.000  C
  O5       1.0000 0.13349  0.57509  0.41061  Biso   1.000  O
  C13      1.0000 0.31008  0.71359  0.38191  Biso   1.000  C
  C14      1.0000 0.19498  0.53608  0.63639  Biso   1.000  C
  O6       1.0000 0.35289  0.59732  0.63700  Biso   1.000  O
  C15      1.0000 0.76891  0.64752  0.41750  Biso   1.000  C
  C16      1.0000 0.21799  0.73582  0.35502  Biso   1.000  C
  C17      1.0000 0.36286  0.77919  0.39942  Biso   1.000  C
  C18      1.0000 0.14458  0.59932  0.65529  Biso   1.000  C
  O7       1.0000 0.13140  0.49372  0.60711  Biso   1.000  O
  C19      1.0000 0.30837  0.66208  0.65229  Biso   1.000  C
  C20      1.0000 0.24203  0.78670  0.31450  Biso   1.000  C
  O8       1.0000 0.16922  0.67648  0.33462  Biso   1.000  O
  C21      1.0000 0.46091  0.76399  0.42399  Biso   1.000  C
  O9       1.0000 0.38401  0.82660  0.36079  Biso   1.000  O
  C22      1.0000 0.21590  0.64489  0.68321  Biso   1.000  C
  O10      1.0000 0.06388  0.57840  0.68521  Biso   1.000  O
  C23      1.0000 0.38378  0.70381  0.67811  Biso   1.000  C
  C24      1.0000 0.29780  0.84852  0.33579  Biso   1.000  C
  O11      1.0000 0.15567  0.80962  0.29111  Biso   1.000  O
  O12      1.0000 0.49680  0.82050  0.44998  Biso   1.000  O
  O13      1.0000 0.16543  0.70938  0.69381  Biso   1.000  O
  O14      1.0000 0.46069  0.72342  0.64541  Biso   1.000  O
  O15      1.0000 0.41349  0.67138  0.71770  Biso   1.000  O
  O16      1.0000 0.23429  0.88431  0.36728  Biso   1.000  O
  C25      1.0000 0.15999  0.72988  0.74209  Biso   1.000  C
  C26      1.0000 0.21873  0.95790  0.35979  Biso   1.000  C
  C27      1.0000 0.05442  0.74691  0.75539  Biso   1.000  C
  O17      1.0000 0.22163  0.78949  0.74962  Biso   1.000  O
  C28      1.0000 0.10773  0.97099  0.36661  Biso   1.000  C
  C29      1.0000 0.27449  0.00110  0.39760  Biso   1.000  C
  C30      1.0000 0.01913  0.80930  0.72879  Biso   1.000  C
  O18      1.0000 0.99859  0.68442  0.74630  Biso   1.000  O
  C31      1.0000 0.19379  0.85130  0.72440  Biso   1.000  C
  O19      1.0000 0.05427  0.93472  0.32891  Biso   1.000  O
  C32      1.0000 0.08472  0.04899  0.36678  Biso   1.000  C
  C33      1.0000 0.38580  0.99469  0.39289  Biso   1.000  C
  O20      1.0000 0.24933  0.07369  0.39250  Biso   1.000  O
  C34      1.0000 0.08711  0.87191  0.73582  Biso   1.000  C
  O21      1.0000 0.92183  0.82581  0.74480  Biso   1.000  O
  C35      1.0000 0.26869  0.90670  0.73621  Biso   1.000  C
  O22      1.0000 0.98072  0.05961  0.37620  Biso   1.000  O
  C36      1.0000 0.14793  0.08862  0.40041  Biso   1.000  C
  O23      1.0000 0.41773  0.01461  0.34639  Biso   1.000  O
  O24      1.0000 0.05643  0.92589  0.70468  Biso   1.000  O
  O25      1.0000 0.36093  0.89519  0.71549  Biso   1.000  O
  O26      1.0000 0.12068  0.06870  0.44720  Biso   1.000  O
  C37      1.0000 0.02070  0.98891  0.72530  Biso   1.000  C
  C38      1.0000 0.10408  0.12258  0.48169  Biso   1.000  C
  C39      1.0000 0.92332  0.00878  0.70140  Biso   1.000  C
  O27      1.0000 0.09031  0.04179  0.72230  Biso   1.000  O
  C40      1.0000 0.99940  0.11558  0.49930  Biso   1.000  C
  C41      1.0000 0.17972  0.11459  0.52241  Biso   1.000  C
  O28      1.0000 0.85319  0.95380  0.70340  Biso   1.000  O
  C42      1.0000 0.94498  0.02802  0.65001  Biso   1.000  C
  C43      1.0000 0.11800  0.06050  0.67419  Biso   1.000  C
  C44      1.0000 0.98109  0.16668  0.53910  Biso   1.000  C
  O29      1.0000 0.93032  0.12731  0.46140  Biso   1.000  O
  C45      1.0000 0.28432  0.12631  0.50911  Biso   1.000  C
  O30      1.0000 0.15582  0.16662  0.55800  Biso   1.000  O
  O31      1.0000 0.85348  0.05440  0.62901  Biso   1.000  O
  C46      1.0000 0.02568  0.08179  0.64702  Biso   1.000  C
  C47      1.0000 0.19692  0.11590  0.67651  Biso   1.000  C
  O32      1.0000 0.88222  0.15590  0.55879  Biso   1.000  O
  C48      1.0000 0.06038  0.15911  0.57862  Biso   1.000  C
  O33      1.0000 0.29653  0.18728  0.48921  Biso   1.000  O
  O34      1.0000 0.35103  0.12000  0.54349  Biso   1.000  O
  O35      1.0000 0.04958  0.08962  0.59791  Biso   1.000  O
  O36      1.0000 0.15999  0.17819  0.69498  Biso   1.000  O
  C49      1.0000 0.49940  0.38439  0.50070  Biso   1.000  C
  C50      1.0000 0.48109  0.33330  0.46090  Biso   1.000  C
  C51      1.0000 0.60408  0.37740  0.51831  Biso   1.000  C
  O37      1.0000 0.43032  0.37272  0.53860  Biso   1.000  O
  C52      1.0000 0.56038  0.34092  0.42138  Biso   1.000  C
  O38      1.0000 0.38222  0.34413  0.44121  Biso   1.000  O
  C53      1.0000 0.67972  0.38539  0.47759  Biso   1.000  C
  O39      1.0000 0.62068  0.43127  0.55280  Biso   1.000  O
  O40      1.0000 0.54958  0.41041  0.40209  Biso   1.000  O
  O41      1.0000 0.65582  0.33340  0.44200  Biso   1.000  O
  C54      1.0000 0.78432  0.37372  0.49089  Biso   1.000  C
  C55      1.0000 0.64793  0.41141  0.59959  Biso   1.000  C
  C56      1.0000 0.52568  0.41819  0.35298  Biso   1.000  C
  O42      1.0000 0.79653  0.31269  0.51079  Biso   1.000  O
  O43      1.0000 0.85103  0.37997  0.45651  Biso   1.000  O
  C57      1.0000 0.58472  0.45099  0.63322  Biso   1.000  C
  O44      1.0000 0.74933  0.42628  0.60750  Biso   1.000  O
  C58      1.0000 0.44498  0.47201  0.34999  Biso   1.000  C
  C59      1.0000 0.61800  0.43947  0.32581  Biso   1.000  C
  C60      1.0000 0.60773  0.52899  0.63339  Biso   1.000  C
  O45      1.0000 0.48072  0.44042  0.62380  Biso   1.000  O
  C61      1.0000 0.77449  0.49892  0.60240  Biso   1.000  C
  O46      1.0000 0.35348  0.44562  0.37099  Biso   1.000  O
  C62      1.0000 0.42332  0.49120  0.29860  Biso   1.000  C
  O47      1.0000 0.59031  0.45819  0.27770  Biso   1.000  O
  C63      1.0000 0.69692  0.38413  0.32349  Biso   1.000  C
  C64      1.0000 0.71873  0.54208  0.64021  Biso   1.000  C
  O48      1.0000 0.55427  0.56531  0.67109  Biso   1.000  O
  C65      1.0000 0.88580  0.50528  0.60711  Biso   1.000  C
  O49      1.0000 0.35319  0.54618  0.29660  Biso   1.000  O
  C66      1.0000 0.52070  0.51112  0.27470  Biso   1.000  C
  O50      1.0000 0.65999  0.32179  0.30502  Biso   1.000  O
  O51      1.0000 0.73429  0.61572  0.63272  Biso   1.000  O
  O52      1.0000 0.91773  0.48541  0.65361  Biso   1.000  O
  O53      1.0000 0.55643  0.57409  0.29532  Biso   1.000  O
  C67      1.0000 0.79780  0.65151  0.66421  Biso   1.000  C
  C68      1.0000 0.58711  0.62812  0.26418  Biso   1.000  C
  C69      1.0000 0.74203  0.71332  0.68550  Biso   1.000  C
  O54      1.0000 0.88401  0.67338  0.63921  Biso   1.000  O
  C70      1.0000 0.51913  0.69072  0.27121  Biso   1.000  C
  C71      1.0000 0.69379  0.64873  0.27560  Biso   1.000  C
  C72      1.0000 0.71799  0.76420  0.64498  Biso   1.000  C
  O55      1.0000 0.65567  0.69041  0.70889  Biso   1.000  O
  C73      1.0000 0.86286  0.72079  0.60058  Biso   1.000  C
  C74      1.0000 0.55442  0.75311  0.24461  Biso   1.000  C
  O56      1.0000 0.42183  0.67422  0.25520  Biso   1.000  O
  C75      1.0000 0.76869  0.59332  0.26379  Biso   1.000  C
  O57      1.0000 0.72163  0.71049  0.25038  Biso   1.000  O
  C76      1.0000 0.81008  0.78639  0.61809  Biso   1.000  C
  O58      1.0000 0.66922  0.82350  0.66538  Biso   1.000  O
  C77      1.0000 0.96091  0.73598  0.57601  Biso   1.000  C
  C78      1.0000 0.65999  0.77009  0.25791  Biso   1.000  C
  O59      1.0000 0.49859  0.81561  0.25370  Biso   1.000  O
  O60      1.0000 0.86093  0.60478  0.28451  Biso   1.000  O
  O61      1.0000 0.77673  0.82639  0.57840  Biso   1.000  O
  O62      1.0000 0.99680  0.67947  0.55002  Biso   1.000  O
  O63      1.0000 0.66543  0.79059  0.30619  Biso   1.000  O
  C79      1.0000 0.80502  0.89693  0.57708  Biso   1.000  C
  C80      1.0000 0.71590  0.85509  0.31679  Biso   1.000  C
  C81      1.0000 0.71747  0.94129  0.56029  Biso   1.000  C
  O64      1.0000 0.88721  0.91001  0.54731  Biso   1.000  O
  C82      1.0000 0.64458  0.90071  0.34471  Biso   1.000  C
  C83      1.0000 0.80837  0.83790  0.34771  Biso   1.000  C
  C84      1.0000 0.69282  0.92620  0.50911  Biso   1.000  C
  O65      1.0000 0.63349  0.92489  0.58939  Biso   1.000  O
  C85      1.0000 0.87187  0.88999  0.49859  Biso   1.000  C
  C86      1.0000 0.69498  0.96389  0.36361  Biso   1.000  C
  O66      1.0000 0.56388  0.92158  0.31479  Biso   1.000  O
  C87      1.0000 0.88378  0.79622  0.32189  Biso   1.000  C
  O67      1.0000 0.85289  0.90271  0.36300  Biso   1.000  O
  C88      1.0000 0.78499  0.93398  0.47801  Biso   1.000  C
  O68      1.0000 0.61927  0.97283  0.49171  Biso   1.000  O
  C89      1.0000 0.96419  0.89850  0.47192  Biso   1.000  C
  C90      1.0000 0.78901  0.94460  0.39078  Biso   1.000  C
  O69      1.0000 0.63140  0.00631  0.39289  Biso   1.000  O
  O70      1.0000 0.96069  0.77661  0.35459  Biso   1.000  O
  O71      1.0000 0.91349  0.82859  0.28230  Biso   1.000  O
  O72      1.0000 0.75923  0.90670  0.43158  Biso   1.000  O
  N2       1.0000 0.04206  0.84878  0.48001  Biso   1.000  N
  C91      1.0000 0.11778  0.85188  0.51328  Biso   1.000  C
  C92      1.0000 0.12113  0.90350  0.54741  Biso   1.000  C
  C93      1.0000 0.18918  0.79947  0.51400  Biso   1.000  C
  C94      1.0000 0.19930  0.90318  0.58079  Biso   1.000  C
  C95      1.0000 0.26117  0.79958  0.54820  Biso   1.000  C
  C96      1.0000 0.26891  0.85251  0.58250  Biso   1.000  C
  O73      1.0000 0.50141  0.31558  0.24628  Biso   1.000  O
  C97      1.0000 0.44558  0.25309  0.25541  Biso   1.000  C
  C98      1.0000 0.34001  0.27012  0.24211  Biso   1.000  C
  C99      1.0000 0.48087  0.19070  0.22881  Biso   1.000  C
  O74      1.0000 0.27837  0.21051  0.24960  Biso   1.000  O
  O75      1.0000 0.33457  0.29062  0.19379  Biso   1.000  O
  C100     1.0000 0.41289  0.12809  0.23580  Biso   1.000  C
  O76      1.0000 0.57817  0.17419  0.24478  Biso   1.000  O
  C101     1.0000 0.30621  0.14870  0.22439  Biso   1.000  C
  C102     1.0000 0.28410  0.35511  0.18320  Biso   1.000  C
  O77      1.0000 0.44357  0.07411  0.20470  Biso   1.000  O
  C103     1.0000 0.23131  0.09330  0.23619  Biso   1.000  C
  C104     1.0000 0.35542  0.40068  0.15531  Biso   1.000  C
  C105     1.0000 0.19163  0.33792  0.15231  Biso   1.000  C
  C106     1.0000 0.47930  0.01109  0.22531  Biso   1.000  C
  O78      1.0000 0.13907  0.10481  0.21551  Biso   1.000  O
  C107     1.0000 0.30502  0.46392  0.13641  Biso   1.000  C
  O79      1.0000 0.43612  0.42160  0.18519  Biso   1.000  O
  C108     1.0000 0.11622  0.29619  0.17810  Biso   1.000  C
  O80      1.0000 0.14711  0.40268  0.13701  Biso   1.000  O
  O81      1.0000 0.40969  0.95821  0.22232  Biso   1.000  O
  C109     1.0000 0.57668  0.99122  0.20138  Biso   1.000  C
  C110     1.0000 0.21099  0.44463  0.10920  Biso   1.000  C
  O82      1.0000 0.36860  0.50628  0.10709  Biso   1.000  O
  O83      1.0000 0.03931  0.27658  0.14539  Biso   1.000  O
  O84      1.0000 0.08651  0.32862  0.21772  Biso   1.000  O
  C111     1.0000 0.38200  0.93950  0.17421  Biso   1.000  C
  O85      1.0000 0.64681  0.04620  0.20342  Biso   1.000  O
  C112     1.0000 0.55502  0.97198  0.14999  Biso   1.000  C
  O86      1.0000 0.24077  0.40668  0.06840  Biso   1.000  O
  C113     1.0000 0.47432  0.91821  0.14700  Biso   1.000  C
  C114     1.0000 0.30308  0.88410  0.17649  Biso   1.000  C
  O87      1.0000 0.64652  0.94560  0.12899  Biso   1.000  O
  C115     1.0000 0.21501  0.43401  0.02200  Biso   1.000  C
  O88      1.0000 0.45042  0.91038  0.09789  Biso   1.000  O
  O89      1.0000 0.34001  0.82181  0.19500  Biso   1.000  O
  C116     1.0000 0.12813  0.39001  0.00139  Biso   1.000  C
  C117     1.0000 0.30718  0.42618  0.99091  Biso   1.000  C
  C118     1.0000 0.43962  0.84089  0.07860  Biso   1.000  C
  C119     1.0000 0.03581  0.39848  0.02810  Biso   1.000  C
  O90      1.0000 0.11279  0.40999  0.95271  Biso   1.000  O
  O91      1.0000 0.38073  0.47280  0.00831  Biso   1.000  O
  C120     1.0000 0.28253  0.44131  0.93970  Biso   1.000  C
  C121     1.0000 0.51891  0.83332  0.03909  Biso   1.000  C
  O92      1.0000 0.34418  0.83338  0.05799  Biso   1.000  O
  N3       1.0000 0.95794  0.34880  0.02001  Biso   1.000  N
  C122     1.0000 0.19498  0.39690  0.92290  Biso   1.000  C
  O93      1.0000 0.36651  0.42491  0.91060  Biso   1.000  O
  C123     1.0000 0.50060  0.88442  0.99929  Biso   1.000  C
  O94      1.0000 0.61778  0.84410  0.05881  Biso   1.000  O
  C124     1.0000 0.32028  0.88541  0.02240  Biso   1.000  C
  C125     1.0000 0.88222  0.35191  0.98670  Biso   1.000  C
  O95      1.0000 0.22327  0.32641  0.92161  Biso   1.000  O
  C126     1.0000 0.39592  0.87742  0.98171  Biso   1.000  C
  O96      1.0000 0.56968  0.87269  0.96141  Biso   1.000  O
  C127     1.0000 0.21568  0.87369  0.00909  Biso   1.000  C
  C128     1.0000 0.87887  0.40352  0.95261  Biso   1.000  C
  C129     1.0000 0.81082  0.29950  0.98598  Biso   1.000  C
  C130     1.0000 0.18992  0.28641  0.88189  Biso   1.000  C
  O97      1.0000 0.37932  0.93130  0.94718  Biso   1.000  O
  O98      1.0000 0.20347  0.81272  0.98919  Biso   1.000  O
  O99      1.0000 0.14897  0.88000  0.04351  Biso   1.000  O
  C131     1.0000 0.80070  0.40321  0.91919  Biso   1.000  C
  C132     1.0000 0.73883  0.29961  0.95178  Biso   1.000  C
  C133     1.0000 0.28201  0.26418  0.85500  Biso   1.000  C
  C134     1.0000 0.13714  0.22081  0.89940  Biso   1.000  C
  C135     1.0000 0.35207  0.91138  0.90040  Biso   1.000  C
  C136     1.0000 0.73109  0.35248  0.91751  Biso   1.000  C
  C137     1.0000 0.25797  0.21330  0.81449  Biso   1.000  C
  O100     1.0000 0.33078  0.32352  0.83460  Biso   1.000  O
  C138     1.0000 0.03909  0.23601  0.92400  Biso   1.000  C
  O101     1.0000 0.11599  0.17340  0.86081  Biso   1.000  O
  C139     1.0000 0.41528  0.95101  0.86680  Biso   1.000  C
  O102     1.0000 0.25067  0.92631  0.89251  Biso   1.000  O
  C140     1.0000 0.20220  0.15148  0.83581  Biso   1.000  C
  O103     1.0000 0.34433  0.19038  0.79109  Biso   1.000  O
  O104     1.0000 0.00320  0.17950  0.95000  Biso   1.000  O
  O105     1.0000 0.51928  0.94039  0.87622  Biso   1.000  O
  C141     1.0000 0.39227  0.02901  0.86659  Biso   1.000  C
  C142     1.0000 0.22551  0.99890  0.89761  Biso   1.000  C
  O106     1.0000 0.26571  0.11569  0.86730  Biso   1.000  O
  C143     1.0000 0.28127  0.04210  0.85981  Biso   1.000  C
  O107     1.0000 0.44573  0.06528  0.82889  Biso   1.000  O
  C144     1.0000 0.11420  0.00531  0.89291  Biso   1.000  C
  O108     1.0000 0.08227  0.98539  0.84640  Biso   1.000  O
  C145     1.0000 0.73131  0.40668  0.76381  Biso   1.000  C
  C146     1.0000 0.80621  0.35127  0.77561  Biso   1.000  C
  O109     1.0000 0.63907  0.39522  0.78449  Biso   1.000  O
  O110     1.0000 0.77837  0.28951  0.75040  Biso   1.000  O
  C147     1.0000 0.91289  0.37188  0.76420  Biso   1.000  C
  C148     1.0000 0.84001  0.22991  0.75789  Biso   1.000  C
  C149     1.0000 0.98087  0.30928  0.77119  Biso   1.000  C
  O111     1.0000 0.94357  0.42591  0.79530  Biso   1.000  O
  O112     1.0000 0.83457  0.20941  0.80621  Biso   1.000  O
  C150     1.0000 0.94558  0.24689  0.74459  Biso   1.000  C
  O113     1.0000 0.07817  0.32578  0.75522  Biso   1.000  O
  C151     1.0000 0.97930  0.48888  0.77469  Biso   1.000  C
  C152     1.0000 0.78410  0.14491  0.81680  Biso   1.000  C
  O114     1.0000 0.00141  0.18439  0.75372  Biso   1.000  O
  O115     1.0000 0.90969  0.54181  0.77768  Biso   1.000  O
  C153     1.0000 0.07668  0.50880  0.79862  Biso   1.000  C
  C154     1.0000 0.69163  0.16210  0.84769  Biso   1.000  C
  C155     1.0000 0.85542  0.09929  0.84469  Biso   1.000  C
  C156     1.0000 0.88200  0.56053  0.82579  Biso   1.000  C
  O116     1.0000 0.14681  0.45382  0.79658  Biso   1.000  O
  C157     1.0000 0.05502  0.52799  0.85001  Biso   1.000  C
  C158     1.0000 0.61622  0.20378  0.82190  Biso   1.000  C
  O117     1.0000 0.64711  0.09729  0.86299  Biso   1.000  O
  C159     1.0000 0.80502  0.03611  0.86359  Biso   1.000  C
  O118     1.0000 0.93612  0.07842  0.81481  Biso   1.000  O
  C160     1.0000 0.97432  0.58181  0.85300  Biso   1.000  C
  C161     1.0000 0.80308  0.61587  0.82351  Biso   1.000  C
  O119     1.0000 0.14652  0.55438  0.87101  Biso   1.000  O
  O120     1.0000 0.58651  0.17141  0.78228  Biso   1.000  O
  O121     1.0000 0.53931  0.22339  0.85461  Biso   1.000  O
  C162     1.0000 0.71099  0.05540  0.89080  Biso   1.000  C
  O122     1.0000 0.86860  0.99369  0.89291  Biso   1.000  O
  O123     1.0000 0.95042  0.58959  0.90211  Biso   1.000  O
  O124     1.0000 0.84001  0.67821  0.80500  Biso   1.000  O
  O125     1.0000 0.74077  0.09330  0.93160  Biso   1.000  O
  C163     1.0000 0.93962  0.65908  0.92140  Biso   1.000  C
  C164     1.0000 0.71501  0.06602  0.97800  Biso   1.000  C
  O126     1.0000 0.84418  0.66660  0.94201  Biso   1.000  O
  C165     1.0000 0.01891  0.66670  0.96091  Biso   1.000  C
  C166     1.0000 0.62813  0.11001  0.99861  Biso   1.000  C
  C167     1.0000 0.80718  0.07380  0.00909  Biso   1.000  C
  C168     1.0000 0.82028  0.61461  0.97760  Biso   1.000  C
  O127     1.0000 0.11778  0.65587  0.94119  Biso   1.000  O
  C169     1.0000 0.00060  0.61561  0.00071  Biso   1.000  C
  C170     1.0000 0.53581  0.10150  0.97190  Biso   1.000  C
  O128     1.0000 0.61279  0.08999  0.04729  Biso   1.000  O
  O129     1.0000 0.88073  0.02717  0.99169  Biso   1.000  O
  C171     1.0000 0.78253  0.05871  0.06030  Biso   1.000  C
  C172     1.0000 0.71568  0.62628  0.99091  Biso   1.000  C
  C173     1.0000 0.89592  0.62260  0.01829  Biso   1.000  C
  O130     1.0000 0.06968  0.62728  0.03859  Biso   1.000  O
  N4       1.0000 0.45794  0.15122  0.97999  Biso   1.000  N
  C174     1.0000 0.69498  0.10307  0.07710  Biso   1.000  C
  O131     1.0000 0.86651  0.07511  0.08940  Biso   1.000  O
  O132     1.0000 0.64897  0.62003  0.95649  Biso   1.000  O
  O133     1.0000 0.70347  0.68731  0.01081  Biso   1.000  O
  O134     1.0000 0.87932  0.56873  0.05282  Biso   1.000  O
  C175     1.0000 0.38222  0.14812  0.01330  Biso   1.000  C
  O135     1.0000 0.72327  0.17361  0.07839  Biso   1.000  O
  C176     1.0000 0.85207  0.58859  0.09960  Biso   1.000  C
  C177     1.0000 0.37887  0.09650  0.04739  Biso   1.000  C
  C178     1.0000 0.31082  0.20053  0.01402  Biso   1.000  C
  C179     1.0000 0.68992  0.21361  0.11811  Biso   1.000  C
  C180     1.0000 0.91528  0.54901  0.13320  Biso   1.000  C
  O136     1.0000 0.75067  0.57372  0.10749  Biso   1.000  O
  C181     1.0000 0.30070  0.09682  0.08081  Biso   1.000  C
  C182     1.0000 0.23883  0.20042  0.04822  Biso   1.000  C
  C183     1.0000 0.78201  0.23580  0.14500  Biso   1.000  C
  C184     1.0000 0.63714  0.27921  0.10060  Biso   1.000  C
  C185     1.0000 0.89227  0.47101  0.13341  Biso   1.000  C
  O137     1.0000 0.01928  0.55958  0.12378  Biso   1.000  O
  C186     1.0000 0.72551  0.50108  0.10239  Biso   1.000  C
  C187     1.0000 0.23109  0.14749  0.08249  Biso   1.000  C
  C188     1.0000 0.75797  0.28668  0.18551  Biso   1.000  C
  O138     1.0000 0.83078  0.17650  0.16540  Biso   1.000  O
  C189     1.0000 0.53909  0.26402  0.07600  Biso   1.000  C
  O139     1.0000 0.61599  0.32662  0.13919  Biso   1.000  O
  C190     1.0000 0.78127  0.45792  0.14019  Biso   1.000  C
  O140     1.0000 0.94573  0.43469  0.17111  Biso   1.000  O
  C191     1.0000 0.61420  0.49472  0.10709  Biso   1.000  C
  C192     1.0000 0.70220  0.34849  0.16419  Biso   1.000  C
  O141     1.0000 0.84433  0.30959  0.20891  Biso   1.000  O
  O142     1.0000 0.50320  0.32053  0.05000  Biso   1.000  O
  O143     1.0000 0.76571  0.38428  0.13270  Biso   1.000  O
  O144     1.0000 0.58227  0.51459  0.15360  Biso   1.000  O
  Ne1      1.0000 0.28207  0.15587  0.04008  Biso   1.000  Ne
  He1      1.0000 0.05966  0.07950  0.07599  Biso   1.000  He
  He2      1.0000 0.50330  0.18118  0.02112  Biso   1.000  He
  Ar1      1.0000 0.49569  0.17978  0.02199  Biso   1.000  Ar
  Ne2      1.0000 0.71793  0.65587  0.45992  Biso   1.000  Ne
  He3      1.0000 0.48499  0.68337  0.48022  Biso   1.000  He
  He4      1.0000 0.93251  0.58088  0.42477  Biso   1.000  He
  Ar2      1.0000 0.50435  0.67979  0.47800  Biso   1.000  Ar
  Ne3      1.0000 0.21793  0.84413  0.54008  Biso   1.000  Ne
  He5      1.0000 0.43230  0.91906  0.57521  Biso   1.000  He
  He6      1.0000 0.99393  0.81830  0.52082  Biso   1.000  He
  Ar3      1.0000 0.00434  0.82018  0.52207  Biso   1.000  Ar
  Ne4      1.0000 0.78207  0.34413  0.95992  Biso   1.000  Ne
  He7      1.0000 0.82375  0.35339  0.95419  Biso   1.000  He
  He8      1.0000 0.54535  0.42308  0.92266  Biso   1.000  He
  Ar4      1.0000 0.80291  0.35750  0.95223  Biso   1.000  Ar
