data_image0
_cell_length_a       12.179
_cell_length_b       13.954
_cell_length_c       20.726
_cell_angle_alpha    80.67
_cell_angle_beta     83.05
_cell_angle_gamma    81.95

_symmetry_space_group_name_H-M    "P 1"
_symmetry_int_tables_number       1

loop_
  _symmetry_equiv_pos_as_xyz
  'x, y, z'

loop_
  _atom_site_label
  _atom_site_occupancy
  _atom_site_fract_x
  _atom_site_fract_y
  _atom_site_fract_z
  _atom_site_thermal_displace_type
  _atom_site_B_iso_or_equiv
  _atom_site_type_symbol
  C1       1.0000 0.67213  0.52310  0.54742  Biso   1.000  C
  C2       1.0000 0.60570  0.49968  0.61279  Biso   1.000  C
  H1       1.0000 0.69426  0.46347  0.52831  Biso   1.000  H
  H2       1.0000 0.62587  0.56779  0.51799  Biso   1.000  H
  C3       1.0000 0.77552  0.56894  0.55391  Biso   1.000  C
  C4       1.0000 0.52463  0.56989  0.63677  Biso   1.000  C
  C5       1.0000 0.62618  0.40930  0.65151  Biso   1.000  C
  C6       1.0000 0.77259  0.66999  0.54762  Biso   1.000  C
  C7       1.0000 0.87499  0.50989  0.56865  Biso   1.000  C
  O1       1.0000 0.50399  0.65759  0.59608  Biso   1.000  O
  C8       1.0000 0.46948  0.55026  0.69938  Biso   1.000  C
  C9       1.0000 0.56993  0.38998  0.71402  Biso   1.000  C
  H3       1.0000 0.67793  0.36106  0.63559  Biso   1.000  H
  H4       1.0000 0.70696  0.70976  0.53789  Biso   1.000  H
  C10      1.0000 0.86582  0.71283  0.55553  Biso   1.000  C
  O2       1.0000 0.87316  0.41050  0.57563  Biso   1.000  O
  C11      1.0000 0.96825  0.55237  0.57431  Biso   1.000  C
  C12      1.0000 0.39780  0.71038  0.60453  Biso   1.000  C
  C13      1.0000 0.49247  0.46132  0.73914  Biso   1.000  C
  H5       1.0000 0.41604  0.59780  0.71491  Biso   1.000  H
  O3       1.0000 0.58684  0.30124  0.75452  Biso   1.000  O
  O4       1.0000 0.86708  0.81202  0.55111  Biso   1.000  O
  C14      1.0000 0.96616  0.65368  0.56811  Biso   1.000  C
  C15      1.0000 0.96991  0.34943  0.59794  Biso   1.000  C
  H6       1.0000 0.03438  0.51249  0.58251  Biso   1.000  H
  C16      1.0000 0.38277  0.78711  0.54556  Biso   1.000  C
  H7       1.0000 0.34109  0.66670  0.60930  Biso   1.000  H
  H8       1.0000 0.39052  0.74102  0.64389  Biso   1.000  H
  C17      1.0000 0.43484  0.44197  0.80804  Biso   1.000  C
  C18      1.0000 0.64191  0.21901  0.72661  Biso   1.000  C
  C19      1.0000 0.76703  0.87460  0.53642  Biso   1.000  C
  C20      1.0000 0.07093  0.69650  0.57583  Biso   1.000  C
  H9       1.0000 0.98496  0.36486  0.63967  Biso   1.000  H
  C21      1.0000 0.94777  0.24400  0.60541  Biso   1.000  C
  H10      1.0000 0.03421  0.36021  0.56639  Biso   1.000  H
  C22      1.0000 0.38147  0.74549  0.48339  Biso   1.000  C
  H11      1.0000 0.31329  0.82882  0.55337  Biso   1.000  H
  H12      1.0000 0.44288  0.82758  0.53990  Biso   1.000  H
  C23      1.0000 0.50415  0.46144  0.85939  Biso   1.000  C
  H13      1.0000 0.36399  0.48351  0.81069  Biso   1.000  H
  H14      1.0000 0.41976  0.37449  0.81738  Biso   1.000  H
  H15      1.0000 0.60804  0.21228  0.68778  Biso   1.000  H
  H16      1.0000 0.71999  0.22666  0.71388  Biso   1.000  H
  C24      1.0000 0.63146  0.12969  0.77796  Biso   1.000  C
  H17      1.0000 0.74434  0.86309  0.49528  Biso   1.000  H
  H18      1.0000 0.70769  0.86086  0.57091  Biso   1.000  H
  C25      1.0000 0.78785  0.97681  0.53111  Biso   1.000  C
  C26      1.0000 0.08705  0.69129  0.64753  Biso   1.000  C
  H19      1.0000 0.06567  0.76419  0.55499  Biso   1.000  H
  H20      1.0000 0.13501  0.66067  0.55411  Biso   1.000  H
  H21      1.0000 0.88198  0.23460  0.63598  Biso   1.000  H
  H22      1.0000 0.93345  0.22916  0.56330  Biso   1.000  H
  C27      1.0000 0.04645  0.17476  0.63033  Biso   1.000  C
  H23      1.0000 0.32039  0.70744  0.48791  Biso   1.000  H
  H24      1.0000 0.37285  0.79784  0.44741  Biso   1.000  H
  H25      1.0000 0.45013  0.70449  0.47498  Biso   1.000  H
  C28      1.0000 0.50029  0.55587  0.87394  Biso   1.000  C
  C29      1.0000 0.57502  0.38631  0.89198  Biso   1.000  C
  H26      1.0000 0.66651  0.13759  0.81610  Biso   1.000  H
  H27      1.0000 0.67128  0.07282  0.76047  Biso   1.000  H
  C30      1.0000 0.51706  0.11256  0.79860  Biso   1.000  C
  H28      1.0000 0.84458  0.98930  0.49469  Biso   1.000  H
  H29      1.0000 0.77001  0.99369  0.57509  Biso   1.000  H
  H30      1.0000 0.72019  0.01835  0.51990  Biso   1.000  H
  C31      1.0000 0.81968  0.00430  0.58281  Biso   1.000  C
  C32      1.0000 0.88403  0.01380  0.50771  Biso   1.000  C
  H31      1.0000 0.73157  0.01502  0.50511  Biso   1.000  H
  C33      1.0000 0.04275  0.76797  0.68129  Biso   1.000  C
  C34      1.0000 0.14036  0.60781  0.68257  Biso   1.000  C
  H32      1.0000 0.05641  0.18539  0.67377  Biso   1.000  H
  H33      1.0000 0.03289  0.10834  0.63151  Biso   1.000  H
  H34      1.0000 0.11254  0.18675  0.60148  Biso   1.000  H
  O5       1.0000 0.43043  0.62772  0.83984  Biso   1.000  O
  C35      1.0000 0.56333  0.57355  0.92127  Biso   1.000  C
  H35      1.0000 0.57827  0.32278  0.88298  Biso   1.000  H
  C36      1.0000 0.64076  0.40523  0.93758  Biso   1.000  C
  H36      1.0000 0.51584  0.05272  0.82878  Biso   1.000  H
  H37      1.0000 0.47887  0.16590  0.81969  Biso   1.000  H
  H38      1.0000 0.48069  0.10768  0.76091  Biso   1.000  H
  H39      1.0000 0.85975  0.94933  0.60768  Biso   1.000  H
  H40      1.0000 0.86701  0.05479  0.56880  Biso   1.000  H
  H41      1.0000 0.75537  0.02888  0.60959  Biso   1.000  H
  H42      1.0000 0.93625  0.99632  0.54010  Biso   1.000  H
  H43      1.0000 0.91458  0.98749  0.46840  Biso   1.000  H
  H44      1.0000 0.86973  0.08368  0.49798  Biso   1.000  H
  C37      1.0000 0.04913  0.76300  0.74833  Biso   1.000  C
  H45      1.0000 0.00751  0.82461  0.65839  Biso   1.000  H
  O6       1.0000 0.18842  0.53434  0.64640  Biso   1.000  O
  C38      1.0000 0.14718  0.60137  0.74936  Biso   1.000  C
  C39      1.0000 0.42509  0.72458  0.85487  Biso   1.000  C
  C40      1.0000 0.63487  0.49931  0.95306  Biso   1.000  C
  H46      1.0000 0.55762  0.63642  0.93188  Biso   1.000  H
  O7       1.0000 0.71583  0.33497  0.96909  Biso   1.000  O
  O8       1.0000 0.00617  0.83649  0.78406  Biso   1.000  O
  C41      1.0000 0.10142  0.67789  0.78317  Biso   1.000  C
  C42      1.0000 0.22528  0.44131  0.68105  Biso   1.000  C
  H47      1.0000 0.18306  0.54489  0.77187  Biso   1.000  H
  H48      1.0000 0.39208  0.72705  0.89960  Biso   1.000  H
  H49      1.0000 0.49973  0.74312  0.85119  Biso   1.000  H
  C43      1.0000 0.35672  0.79430  0.80838  Biso   1.000  C
  C44      1.0000 0.70651  0.52385  0.00113  Biso   1.000  C
  C45      1.0000 0.72013  0.23703  0.95793  Biso   1.000  C
  C46      1.0000 0.96547  0.92904  0.74926  Biso   1.000  C
  C47      1.0000 0.10697  0.66848  0.85689  Biso   1.000  C
  H50      1.0000 0.27462  0.44857  0.71289  Biso   1.000  H
  H51      1.0000 0.16188  0.41126  0.70449  Biso   1.000  H
  C48      1.0000 0.28587  0.37782  0.63244  Biso   1.000  C
  H52      1.0000 0.39077  0.79247  0.76371  Biso   1.000  H
  H53      1.0000 0.28274  0.77461  0.81138  Biso   1.000  H
  C49      1.0000 0.34767  0.89692  0.82421  Biso   1.000  C
  C50      1.0000 0.80995  0.56290  0.96442  Biso   1.000  C
  H54      1.0000 0.66482  0.57266  0.02600  Biso   1.000  H
  H55      1.0000 0.72774  0.46579  0.03179  Biso   1.000  H
  H56      1.0000 0.65014  0.21214  0.97469  Biso   1.000  H
  H57      1.0000 0.73300  0.23363  0.91119  Biso   1.000  H
  C51      1.0000 0.81426  0.17700  0.99297  Biso   1.000  C
  H58      1.0000 0.90151  0.92270  0.72710  Biso   1.000  H
  C52      1.0000 0.93231  0.99832  0.79890  Biso   1.000  C
  H59      1.0000 0.02284  0.95324  0.71658  Biso   1.000  H
  C53      1.0000 0.00376  0.63089  0.89453  Biso   1.000  C
  H60      1.0000 0.11404  0.73205  0.86829  Biso   1.000  H
  H61      1.0000 0.17215  0.62409  0.86917  Biso   1.000  H
  H62      1.0000 0.23686  0.37296  0.59991  Biso   1.000  H
  H63      1.0000 0.34993  0.40768  0.60989  Biso   1.000  H
  C54      1.0000 0.32461  0.27509  0.66709  Biso   1.000  C
  H64      1.0000 0.30634  0.90032  0.86637  Biso   1.000  H
  H65      1.0000 0.42092  0.91443  0.82490  Biso   1.000  H
  H66      1.0000 0.30996  0.94153  0.79118  Biso   1.000  H
  C55      1.0000 0.81524  0.66292  0.94535  Biso   1.000  C
  C56      1.0000 0.90192  0.49765  0.94584  Biso   1.000  C
  H67      1.0000 0.88455  0.19880  0.97316  Biso   1.000  H
  C57      1.0000 0.81683  0.06972  0.98909  Biso   1.000  C
  H68      1.0000 0.80483  0.18685  0.03867  Biso   1.000  H
  H69      1.0000 0.87398  0.97359  0.83069  Biso   1.000  H
  H70      1.0000 0.90252  0.06154  0.77668  Biso   1.000  H
  C58      1.0000 0.02880  0.01132  0.83458  Biso   1.000  C
  C59      1.0000 0.91131  0.69610  0.91227  Biso   1.000  C
  C60      1.0000 0.99599  0.53063  0.91070  Biso   1.000  C
  H71      1.0000 0.36986  0.28015  0.70100  Biso   1.000  H
  H72      1.0000 0.26080  0.24336  0.68631  Biso   1.000  H
  H73      1.0000 0.36748  0.23747  0.63579  Biso   1.000  H
  O9       1.0000 0.72100  0.72443  0.96348  Biso   1.000  O
  H74      1.0000 0.89936  0.43060  0.95749  Biso   1.000  H
  H75      1.0000 0.82070  0.06054  0.94397  Biso   1.000  H
  H76      1.0000 0.75044  0.04653  0.01258  Biso   1.000  H
  H77      1.0000 0.88097  0.03363  0.00840  Biso   1.000  H
  H78      1.0000 0.05514  0.94991  0.85939  Biso   1.000  H
  H79      1.0000 0.00492  0.05874  0.86377  Biso   1.000  H
  H80      1.0000 0.08801  0.03364  0.80317  Biso   1.000  H
  H81      1.0000 0.91450  0.76308  0.90161  Biso   1.000  H
  O10      1.0000 0.08895  0.46891  0.89055  Biso   1.000  O
  C61      1.0000 0.71877  0.82563  0.93773  Biso   1.000  C
  C62      1.0000 0.07870  0.36690  0.90058  Biso   1.000  C
  H82      1.0000 0.77256  0.85445  0.95709  Biso   1.000  H
  H83      1.0000 0.73736  0.83385  0.89050  Biso   1.000  H
  C63      1.0000 0.60206  0.87442  0.95449  Biso   1.000  C
  H84      1.0000 0.06516  0.34341  0.94717  Biso   1.000  H
  H85      1.0000 0.01675  0.35502  0.87891  Biso   1.000  H
  C64      1.0000 0.18574  0.31469  0.87242  Biso   1.000  C
  H86      1.0000 0.54921  0.84342  0.93586  Biso   1.000  H
  H87      1.0000 0.59651  0.94261  0.93468  Biso   1.000  H
  C65      1.0000 0.57132  0.86860  0.02737  Biso   1.000  C
  H88      1.0000 0.20376  0.34456  0.82740  Biso   1.000  H
  H89      1.0000 0.24584  0.32080  0.89758  Biso   1.000  H
  C66      1.0000 0.17539  0.20739  0.87389  Biso   1.000  C
  H90      1.0000 0.57106  0.80129  0.04678  Biso   1.000  H
  H91      1.0000 0.62485  0.89708  0.04629  Biso   1.000  H
  H92      1.0000 0.49851  0.90349  0.03558  Biso   1.000  H
  H93      1.0000 0.15075  0.17928  0.91778  Biso   1.000  H
  H94      1.0000 0.12251  0.20102  0.84460  Biso   1.000  H
  H95      1.0000 0.24674  0.17369  0.86028  Biso   1.000  H
  C67      1.0000 0.32775  0.47709  0.45257  Biso   1.000  C
  C68      1.0000 0.22438  0.43118  0.44609  Biso   1.000  C
  C69      1.0000 0.39429  0.50044  0.38721  Biso   1.000  C
  H96      1.0000 0.30564  0.53665  0.47169  Biso   1.000  H
  H97      1.0000 0.37403  0.43233  0.48201  Biso   1.000  H
  C70      1.0000 0.22739  0.33013  0.45238  Biso   1.000  C
  C71      1.0000 0.12499  0.49023  0.43134  Biso   1.000  C
  C72      1.0000 0.47527  0.43022  0.36323  Biso   1.000  C
  C73      1.0000 0.37381  0.59083  0.34844  Biso   1.000  C
  C74      1.0000 0.13408  0.28729  0.44447  Biso   1.000  C
  H98      1.0000 0.29294  0.29036  0.46211  Biso   1.000  H
  C75      1.0000 0.03165  0.44775  0.42569  Biso   1.000  C
  O11      1.0000 0.12673  0.58969  0.42437  Biso   1.000  O
  O12      1.0000 0.49599  0.34253  0.40392  Biso   1.000  O
  C76      1.0000 0.53050  0.44986  0.30062  Biso   1.000  C
  H99      1.0000 0.32197  0.63906  0.36441  Biso   1.000  H
  C77      1.0000 0.42997  0.61014  0.28597  Biso   1.000  C
  C78      1.0000 0.03374  0.34644  0.43188  Biso   1.000  C
  O13      1.0000 0.13281  0.18817  0.44889  Biso   1.000  O
  H100     1.0000 0.96561  0.48763  0.41748  Biso   1.000  H
  C79      1.0000 0.02999  0.65069  0.40205  Biso   1.000  C
  C80      1.0000 0.60219  0.28974  0.39547  Biso   1.000  C
  C81      1.0000 0.50750  0.53887  0.26086  Biso   1.000  C
  H101     1.0000 0.58386  0.40232  0.28509  Biso   1.000  H
  O14      1.0000 0.41306  0.69888  0.24548  Biso   1.000  O
  C82      1.0000 0.92897  0.30362  0.42417  Biso   1.000  C
  C83      1.0000 0.23286  0.12559  0.46358  Biso   1.000  C
  H102     1.0000 0.01495  0.63527  0.36028  Biso   1.000  H
  C84      1.0000 0.05220  0.75619  0.39458  Biso   1.000  C
  H103     1.0000 0.96568  0.63998  0.43360  Biso   1.000  H
  H104     1.0000 0.65889  0.33342  0.39070  Biso   1.000  H
  H105     1.0000 0.60937  0.25917  0.35610  Biso   1.000  H
  C85      1.0000 0.61712  0.21308  0.45444  Biso   1.000  C
  C86      1.0000 0.56507  0.55816  0.19191  Biso   1.000  C
  C87      1.0000 0.35798  0.78118  0.27339  Biso   1.000  C
  C88      1.0000 0.91285  0.30883  0.35247  Biso   1.000  C
  H106     1.0000 0.93431  0.23593  0.44501  Biso   1.000  H
  H107     1.0000 0.86489  0.33945  0.44589  Biso   1.000  H
  H108     1.0000 0.25556  0.13703  0.50472  Biso   1.000  H
  H109     1.0000 0.29229  0.13926  0.42908  Biso   1.000  H
  C89      1.0000 0.21203  0.02339  0.46889  Biso   1.000  C
  H110     1.0000 0.11799  0.76559  0.36402  Biso   1.000  H
  H111     1.0000 0.06645  0.77096  0.43670  Biso   1.000  H
  C90      1.0000 0.95346  0.82537  0.36962  Biso   1.000  C
  H112     1.0000 0.68668  0.17138  0.44658  Biso   1.000  H
  H113     1.0000 0.55710  0.17254  0.46009  Biso   1.000  H
  C91      1.0000 0.61843  0.25463  0.51661  Biso   1.000  C
  C92      1.0000 0.49575  0.53877  0.14055  Biso   1.000  C
  H114     1.0000 0.63599  0.51661  0.18931  Biso   1.000  H
  H115     1.0000 0.58014  0.62563  0.18262  Biso   1.000  H
  H116     1.0000 0.39186  0.78784  0.31222  Biso   1.000  H
  H117     1.0000 0.28000  0.77347  0.28607  Biso   1.000  H
  C93      1.0000 0.36845  0.87044  0.22199  Biso   1.000  C
  C94      1.0000 0.95715  0.23215  0.31870  Biso   1.000  C
  C95      1.0000 0.85961  0.39239  0.31743  Biso   1.000  C
  H118     1.0000 0.15539  0.01089  0.50531  Biso   1.000  H
  H119     1.0000 0.22989  0.00643  0.42491  Biso   1.000  H
  H120     1.0000 0.27979  0.98177  0.48010  Biso   1.000  H
  C96      1.0000 0.18030  0.99582  0.41719  Biso   1.000  C
  C97      1.0000 0.11587  0.98632  0.49228  Biso   1.000  C
  H121     1.0000 0.26840  0.98517  0.49489  Biso   1.000  H
  H122     1.0000 0.94350  0.81474  0.32617  Biso   1.000  H
  H123     1.0000 0.96710  0.89178  0.36849  Biso   1.000  H
  H124     1.0000 0.88736  0.81337  0.39851  Biso   1.000  H
  H125     1.0000 0.67960  0.29268  0.51209  Biso   1.000  H
  H126     1.0000 0.62705  0.20228  0.55258  Biso   1.000  H
  H127     1.0000 0.54977  0.29563  0.52501  Biso   1.000  H
  C98      1.0000 0.49969  0.44425  0.12606  Biso   1.000  C
  C99      1.0000 0.42489  0.61382  0.10797  Biso   1.000  C
  H128     1.0000 0.33339  0.86253  0.18390  Biso   1.000  H
  H129     1.0000 0.32870  0.92739  0.23948  Biso   1.000  H
  C100     1.0000 0.48284  0.88756  0.20140  Biso   1.000  C
  C101     1.0000 0.95077  0.23712  0.25167  Biso   1.000  C
  H130     1.0000 0.99239  0.17551  0.34161  Biso   1.000  H
  C102     1.0000 0.85280  0.39875  0.25064  Biso   1.000  C
  O15      1.0000 0.81148  0.46578  0.35360  Biso   1.000  O
  H131     1.0000 0.14014  0.05088  0.39227  Biso   1.000  H
  H132     1.0000 0.13289  0.94533  0.43120  Biso   1.000  H
  H133     1.0000 0.24461  0.97124  0.39041  Biso   1.000  H
  H134     1.0000 0.06372  0.00387  0.45990  Biso   1.000  H
  H135     1.0000 0.08540  0.01263  0.53160  Biso   1.000  H
  H136     1.0000 0.13017  0.91644  0.50201  Biso   1.000  H
  C103     1.0000 0.43656  0.42665  0.07873  Biso   1.000  C
  O16      1.0000 0.56948  0.37241  0.16011  Biso   1.000  O
  C104     1.0000 0.35923  0.59490  0.06236  Biso   1.000  C
  H137     1.0000 0.42171  0.67734  0.11701  Biso   1.000  H
  H138     1.0000 0.48404  0.94747  0.17122  Biso   1.000  H
  H139     1.0000 0.52111  0.83422  0.18031  Biso   1.000  H
  H140     1.0000 0.51929  0.89244  0.23909  Biso   1.000  H
  O17      1.0000 0.99373  0.16363  0.21594  Biso   1.000  O
  C105     1.0000 0.89847  0.32230  0.21683  Biso   1.000  C
  H141     1.0000 0.81693  0.45525  0.22808  Biso   1.000  H
  C106     1.0000 0.77471  0.55881  0.31895  Biso   1.000  C
  C107     1.0000 0.36511  0.50081  0.04693  Biso   1.000  C
  H142     1.0000 0.44228  0.36370  0.06811  Biso   1.000  H
  C108     1.0000 0.57489  0.27554  0.14512  Biso   1.000  C
  O18      1.0000 0.28407  0.66515  0.03091  Biso   1.000  O
  C109     1.0000 0.03450  0.07115  0.25074  Biso   1.000  C
  C110     1.0000 0.89302  0.33164  0.14311  Biso   1.000  C
  H143     1.0000 0.72528  0.55155  0.28710  Biso   1.000  H
  H144     1.0000 0.83810  0.58886  0.29551  Biso   1.000  H
  C111     1.0000 0.71410  0.62238  0.36755  Biso   1.000  C
  C112     1.0000 0.29339  0.47627  0.99887  Biso   1.000  C
  H145     1.0000 0.60789  0.27314  0.10040  Biso   1.000  H
  H146     1.0000 0.50017  0.25700  0.14881  Biso   1.000  H
  C113     1.0000 0.64318  0.20582  0.19162  Biso   1.000  C
  C114     1.0000 0.27976  0.76316  0.04207  Biso   1.000  C
  H147     1.0000 0.09839  0.07742  0.27290  Biso   1.000  H
  C115     1.0000 0.06759  0.00180  0.20110  Biso   1.000  C
  H148     1.0000 0.97705  0.04695  0.28342  Biso   1.000  H
  H149     1.0000 0.88593  0.26814  0.13171  Biso   1.000  H
  H150     1.0000 0.82784  0.37604  0.13077  Biso   1.000  H
  C116     1.0000 0.99622  0.36923  0.10546  Biso   1.000  C
  H151     1.0000 0.76312  0.62716  0.40009  Biso   1.000  H
  H152     1.0000 0.64997  0.59244  0.39011  Biso   1.000  H
  C117     1.0000 0.67529  0.72503  0.33291  Biso   1.000  C
  C118     1.0000 0.18995  0.43722  0.03558  Biso   1.000  C
  H153     1.0000 0.33508  0.42746  0.97400  Biso   1.000  H
  H154     1.0000 0.27215  0.53441  0.96820  Biso   1.000  H
  H155     1.0000 0.60913  0.20765  0.23629  Biso   1.000  H
  H156     1.0000 0.71716  0.22551  0.18862  Biso   1.000  H
  C119     1.0000 0.65231  0.10320  0.17579  Biso   1.000  C
  H157     1.0000 0.34975  0.78805  0.02531  Biso   1.000  H
  H158     1.0000 0.26688  0.76656  0.08880  Biso   1.000  H
  C120     1.0000 0.18572  0.82312  0.00703  Biso   1.000  C
  H159     1.0000 0.12600  0.02653  0.16930  Biso   1.000  H
  C121     1.0000 0.97110  0.98880  0.16542  Biso   1.000  C
  H160     1.0000 0.09737  0.93865  0.22331  Biso   1.000  H
  C122     1.0000 0.08859  0.30401  0.08772  Biso   1.000  C
  C123     1.0000 0.00390  0.46956  0.08930  Biso   1.000  C
  H161     1.0000 0.63012  0.71996  0.29900  Biso   1.000  H
  H162     1.0000 0.73910  0.75676  0.31369  Biso   1.000  H
  H163     1.0000 0.63251  0.76265  0.36421  Biso   1.000  H
  C124     1.0000 0.18466  0.33720  0.05465  Biso   1.000  C
  C125     1.0000 0.09798  0.50256  0.05411  Biso   1.000  C
  H164     1.0000 0.69357  0.09981  0.13358  Biso   1.000  H
  H165     1.0000 0.57898  0.08569  0.17510  Biso   1.000  H
  H166     1.0000 0.68994  0.05858  0.20882  Biso   1.000  H
  H167     1.0000 0.11536  0.80133  0.02678  Biso   1.000  H
  C126     1.0000 0.18307  0.93040  0.01091  Biso   1.000  C
  H168     1.0000 0.19507  0.81327  0.96132  Biso   1.000  H
  H169     1.0000 0.99499  0.94139  0.13618  Biso   1.000  H
  H170     1.0000 0.91190  0.96649  0.19678  Biso   1.000  H
  H171     1.0000 0.94476  0.05021  0.14060  Biso   1.000  H
  H172     1.0000 0.08540  0.23704  0.09839  Biso   1.000  H
  O19      1.0000 0.91104  0.53121  0.10945  Biso   1.000  O
  O20      1.0000 0.27898  0.27569  0.03651  Biso   1.000  O
  H173     1.0000 0.10062  0.56952  0.04251  Biso   1.000  H
  H174     1.0000 0.17920  0.93967  0.05598  Biso   1.000  H
  H175     1.0000 0.24946  0.95359  0.98742  Biso   1.000  H
  H176     1.0000 0.11901  0.96649  0.99160  Biso   1.000  H
  C127     1.0000 0.92121  0.63323  0.09937  Biso   1.000  C
  C128     1.0000 0.28121  0.17449  0.06227  Biso   1.000  C
  H177     1.0000 0.93483  0.65672  0.05278  Biso   1.000  H
  H178     1.0000 0.98323  0.64510  0.12109  Biso   1.000  H
  C129     1.0000 0.81416  0.68543  0.12758  Biso   1.000  C
  H179     1.0000 0.22741  0.14574  0.04290  Biso   1.000  H
  H180     1.0000 0.26261  0.16634  0.10949  Biso   1.000  H
  C130     1.0000 0.39792  0.12570  0.04551  Biso   1.000  C
  H181     1.0000 0.79622  0.65556  0.17260  Biso   1.000  H
  H182     1.0000 0.75406  0.67932  0.10242  Biso   1.000  H
  C131     1.0000 0.82451  0.79273  0.12611  Biso   1.000  C
  H183     1.0000 0.45070  0.15672  0.06408  Biso   1.000  H
  H184     1.0000 0.40339  0.05751  0.06531  Biso   1.000  H
  C132     1.0000 0.42857  0.13161  0.97258  Biso   1.000  C
  H185     1.0000 0.84923  0.82084  0.08222  Biso   1.000  H
  H186     1.0000 0.87738  0.79917  0.15540  Biso   1.000  H
  H187     1.0000 0.75316  0.82643  0.13972  Biso   1.000  H
  H188     1.0000 0.42891  0.19891  0.95321  Biso   1.000  H
  H189     1.0000 0.37505  0.10304  0.95371  Biso   1.000  H
  H190     1.0000 0.50139  0.09663  0.96442  Biso   1.000  H
  Ne1      1.0000 0.20171  0.42793  0.24574  Biso   1.000  Ne
  He1      1.0000 0.36729  0.98094  0.24383  Biso   1.000  He
  He2      1.0000 0.04718  0.93843  0.19725  Biso   1.000  He
  Ar1      1.0000 0.20125  0.42637  0.24234  Biso   1.000  Ar
  Ne2      1.0000 0.79822  0.57220  0.75425  Biso   1.000  Ne
  He3      1.0000 0.91300  0.15593  0.80105  Biso   1.000  He
  He4      1.0000 0.63811  0.00466  0.75562  Biso   1.000  He
  Ar2      1.0000 0.79870  0.57377  0.75764  Biso   1.000  Ar
