data_image0
_cell_length_a       15.13
_cell_length_b       19.077
_cell_length_c       20.017
_cell_angle_alpha    72.74
_cell_angle_beta     87.6
_cell_angle_gamma    88.87

_symmetry_space_group_name_H-M    "P 1"
_symmetry_int_tables_number       1

loop_
  _symmetry_equiv_pos_as_xyz
  'x, y, z'

loop_
  _atom_site_label
  _atom_site_occupancy
  _atom_site_fract_x
  _atom_site_fract_y
  _atom_site_fract_z
  _atom_site_thermal_displace_type
  _atom_site_B_iso_or_equiv
  _atom_site_type_symbol
  C1       1.0000 0.14679  0.30367  0.10601  Biso   1.000  C
  C2       1.0000 0.14685  0.30372  0.10601  Biso   1.000  C
  H1       1.0000 0.26278  0.33879  0.06282  Biso   1.000  H
  H2       1.0000 0.26285  0.33879  0.06282  Biso   1.000  H
  C3       1.0000 0.19325  0.29860  0.17281  Biso   1.000  C
  H3       1.0000 0.12890  0.25411  0.10758  Biso   1.000  H
  C4       1.0000 0.06399  0.35039  0.10261  Biso   1.000  C
  O1       1.0000 0.20668  0.33013  0.04732  Biso   1.000  O
  O2       1.0000 0.20675  0.33008  0.04732  Biso   1.000  O
  C5       1.0000 0.06406  0.35039  0.10261  Biso   1.000  C
  C6       1.0000 0.12980  0.27219  0.23710  Biso   1.000  C
  C7       1.0000 0.12980  0.27224  0.23710  Biso   1.000  C
  H4       1.0000 0.24379  0.26479  0.17752  Biso   1.000  H
  O3       1.0000 0.22306  0.36951  0.17072  Biso   1.000  O
  H5       1.0000 0.24386  0.26479  0.17752  Biso   1.000  H
  C8       1.0000 0.00661  0.32452  0.16920  Biso   1.000  C
  C9       1.0000 0.00662  0.32447  0.16920  Biso   1.000  C
  O4       1.0000 0.01119  0.34012  0.04623  Biso   1.000  O
  O5       1.0000 0.01119  0.34008  0.04617  Biso   1.000  O
  H6       1.0000 0.07928  0.40224  0.09318  Biso   1.000  H
  O6       1.0000 0.01126  0.34013  0.04617  Biso   1.000  O
  H7       1.0000 0.07935  0.40219  0.09318  Biso   1.000  H
  O7       1.0000 0.10438  0.19779  0.24249  Biso   1.000  O
  O8       1.0000 0.10438  0.19784  0.24249  Biso   1.000  O
  O9       1.0000 0.10445  0.19779  0.24249  Biso   1.000  O
  O10      1.0000 0.05589  0.31791  0.22998  Biso   1.000  O
  H8       1.0000 0.16051  0.27243  0.27919  Biso   1.000  H
  O11      1.0000 0.05596  0.31791  0.22998  Biso   1.000  O
  H9       1.0000 0.25173  0.36730  0.21260  Biso   1.000  H
  H10      1.0000 0.98193  0.27651  0.17218  Biso   1.000  H
  C10      1.0000 0.93271  0.37617  0.17239  Biso   1.000  C
  C11      1.0000 0.98413  0.40660  0.99660  Biso   1.000  C
  C12      1.0000 0.06778  0.15511  0.30918  Biso   1.000  C
  C13      1.0000 0.06784  0.15511  0.30918  Biso   1.000  C
  H11      1.0000 0.89547  0.38151  0.13360  Biso   1.000  H
  H12      1.0000 0.95637  0.42310  0.17051  Biso   1.000  H
  H13      1.0000 0.89554  0.38151  0.13360  Biso   1.000  H
  H14      1.0000 0.95644  0.42310  0.17051  Biso   1.000  H
  H15      1.0000 0.89875  0.35719  0.21542  Biso   1.000  H
  C14      1.0000 0.91505  0.38706  0.95550  Biso   1.000  C
  C15      1.0000 0.91505  0.38712  0.95550  Biso   1.000  C
  H16      1.0000 0.95812  0.43914  0.02199  Biso   1.000  H
  O12      1.0000 0.05647  0.44332  0.95330  Biso   1.000  O
  O13      1.0000 0.05653  0.44332  0.95330  Biso   1.000  O
  C16      1.0000 0.13552  0.09672  0.34138  Biso   1.000  C
  C17      1.0000 0.98450  0.11948  0.30018  Biso   1.000  C
  C18      1.0000 0.98456  0.11953  0.30018  Biso   1.000  C
  H17      1.0000 0.05633  0.18662  0.33939  Biso   1.000  H
  H18      1.0000 0.05633  0.18657  0.33939  Biso   1.000  H
  C19      1.0000 0.95511  0.34622  0.90572  Biso   1.000  C
  H19      1.0000 0.87301  0.35431  0.98822  Biso   1.000  H
  C20      1.0000 0.95511  0.34617  0.90572  Biso   1.000  C
  O14      1.0000 0.86761  0.45193  0.91781  Biso   1.000  O
  C21      1.0000 0.09480  0.40162  0.90881  Biso   1.000  C
  C22      1.0000 0.09480  0.40157  0.90881  Biso   1.000  C
  O15      1.0000 0.10058  0.04682  0.40870  Biso   1.000  O
  H20      1.0000 0.14880  0.06785  0.30908  Biso   1.000  H
  O16      1.0000 0.10065  0.04682  0.40870  Biso   1.000  O
  C23      1.0000 0.22005  0.12470  0.35881  Biso   1.000  C
  C24      1.0000 0.94982  0.06792  0.36708  Biso   1.000  C
  O17      1.0000 0.91893  0.17440  0.27442  Biso   1.000  O
  H21      1.0000 0.99572  0.09231  0.26610  Biso   1.000  H
  H22      1.0000 0.81801  0.47370  0.93482  Biso   1.000  H
  O18      1.0000 0.88209  0.33080  0.86588  Biso   1.000  O
  H23      1.0000 0.98098  0.29969  0.93331  Biso   1.000  H
  H24      1.0000 0.98104  0.29969  0.93331  Biso   1.000  H
  O19      1.0000 0.88215  0.33080  0.86588  Biso   1.000  O
  C25      1.0000 0.02441  0.39130  0.86101  Biso   1.000  C
  C26      1.0000 0.17400  0.44102  0.87530  Biso   1.000  C
  C27      1.0000 0.17400  0.44097  0.87530  Biso   1.000  C
  H25      1.0000 0.11259  0.35317  0.93870  Biso   1.000  H
  H26      1.0000 0.11266  0.35322  0.93870  Biso   1.000  H
  C28      1.0000 0.02018  0.01242  0.39959  Biso   1.000  C
  C29      1.0000 0.02025  0.01242  0.39959  Biso   1.000  C
  H27      1.0000 0.20810  0.15172  0.39169  Biso   1.000  H
  H28      1.0000 0.25867  0.08412  0.37891  Biso   1.000  H
  H29      1.0000 0.24769  0.15623  0.31688  Biso   1.000  H
  H30      1.0000 0.25874  0.08406  0.37891  Biso   1.000  H
  H31      1.0000 0.24770  0.15618  0.31688  Biso   1.000  H
  H32      1.0000 0.25874  0.08412  0.37891  Biso   1.000  H
  H33      1.0000 0.24776  0.15623  0.31688  Biso   1.000  H
  O20      1.0000 0.92401  0.10649  0.41593  Biso   1.000  O
  H34      1.0000 0.89850  0.04210  0.35771  Biso   1.000  H
  H35      1.0000 0.90159  0.17561  0.22898  Biso   1.000  H
  H36      1.0000 0.90165  0.17561  0.22898  Biso   1.000  H
  H37      1.0000 0.89821  0.28331  0.86331  Biso   1.000  H
  H38      1.0000 0.99995  0.43900  0.83489  Biso   1.000  H
  O21      1.0000 0.05957  0.35369  0.81347  Biso   1.000  O
  O22      1.0000 0.05964  0.35369  0.81347  Biso   1.000  O
  O23      1.0000 0.05963  0.35374  0.81347  Biso   1.000  O
  H39      1.0000 0.21361  0.44420  0.91048  Biso   1.000  H
  H40      1.0000 0.15787  0.48952  0.84761  Biso   1.000  H
  H41      1.0000 0.20271  0.41532  0.84578  Biso   1.000  H
  H42      1.0000 0.15794  0.48952  0.84761  Biso   1.000  H
  H43      1.0000 0.99747  0.98439  0.44629  Biso   1.000  H
  H44      1.0000 0.99754  0.98444  0.44629  Biso   1.000  H
  O24      1.0000 0.03417  0.96321  0.36122  Biso   1.000  O
  O25      1.0000 0.03424  0.96321  0.36122  Biso   1.000  O
  H45      1.0000 0.93511  0.15740  0.39551  Biso   1.000  H
  C30      1.0000 0.07684  0.40044  0.74448  Biso   1.000  C
  C31      1.0000 0.06609  0.89078  0.39860  Biso   1.000  C
  C32      1.0000 0.06609  0.89083  0.39860  Biso   1.000  C
  C33      1.0000 0.06616  0.89083  0.39860  Biso   1.000  C
  H46      1.0000 0.10961  0.44272  0.74830  Biso   1.000  H
  C34      1.0000 0.13930  0.35726  0.70642  Biso   1.000  C
  O26      1.0000 0.00429  0.42654  0.70720  Biso   1.000  O
  O27      1.0000 0.00436  0.42649  0.70720  Biso   1.000  O
  C35      1.0000 0.98788  0.83820  0.41310  Biso   1.000  C
  C36      1.0000 0.98794  0.83820  0.41310  Biso   1.000  C
  C37      1.0000 0.13981  0.86751  0.35619  Biso   1.000  C
  H47      1.0000 0.08903  0.89210  0.44330  Biso   1.000  H
  O28      1.0000 0.16890  0.40681  0.64260  Biso   1.000  O
  H48      1.0000 0.19012  0.33819  0.73542  Biso   1.000  H
  C38      1.0000 0.08802  0.29384  0.69658  Biso   1.000  C
  C39      1.0000 0.95033  0.36868  0.69919  Biso   1.000  C
  C40      1.0000 0.95033  0.36873  0.69919  Biso   1.000  C
  C41      1.0000 0.91692  0.85329  0.46189  Biso   1.000  C
  H49      1.0000 0.96133  0.84120  0.36850  Biso   1.000  H
  O29      1.0000 0.01857  0.76402  0.44362  Biso   1.000  O
  O30      1.0000 0.01863  0.76397  0.44362  Biso   1.000  O
  O31      1.0000 0.01863  0.76402  0.44362  Biso   1.000  O
  C42      1.0000 0.16503  0.78713  0.39268  Biso   1.000  C
  H50      1.0000 0.11690  0.86991  0.31049  Biso   1.000  H
  C43      1.0000 0.16503  0.78708  0.39268  Biso   1.000  C
  O32      1.0000 0.21305  0.91409  0.34462  Biso   1.000  O
  H51      1.0000 0.13662  0.44000  0.60679  Biso   1.000  H
  O33      1.0000 0.14163  0.25478  0.65909  Biso   1.000  O
  H52      1.0000 0.07221  0.26021  0.74291  Biso   1.000  H
  O34      1.0000 0.14163  0.25483  0.65909  Biso   1.000  O
  C44      1.0000 0.00491  0.32253  0.66040  Biso   1.000  C
  C45      1.0000 0.87131  0.40668  0.65888  Biso   1.000  C
  H53      1.0000 0.93017  0.33739  0.74542  Biso   1.000  H
  H54      1.0000 0.93024  0.33739  0.74542  Biso   1.000  H
  C46      1.0000 0.87131  0.40673  0.65888  Biso   1.000  C
  H55      1.0000 0.87038  0.81809  0.46838  Biso   1.000  H
  H56      1.0000 0.89341  0.90182  0.44221  Biso   1.000  H
  H57      1.0000 0.94159  0.84961  0.50618  Biso   1.000  H
  H58      1.0000 0.87044  0.81809  0.46838  Biso   1.000  H
  H59      1.0000 0.89341  0.90177  0.44221  Biso   1.000  H
  H60      1.0000 0.87044  0.81814  0.46838  Biso   1.000  H
  H61      1.0000 0.94166  0.84961  0.50618  Biso   1.000  H
  C47      1.0000 0.08400  0.73963  0.40331  Biso   1.000  C
  O35      1.0000 0.20121  0.78132  0.45561  Biso   1.000  O
  H62      1.0000 0.20873  0.77069  0.36289  Biso   1.000  H
  O36      1.0000 0.20122  0.78127  0.45561  Biso   1.000  O
  H63      1.0000 0.20873  0.77074  0.36289  Biso   1.000  H
  H64      1.0000 0.21594  0.95020  0.30013  Biso   1.000  H
  H65      1.0000 0.15822  0.27673  0.61119  Biso   1.000  H
  O37      1.0000 0.94532  0.26186  0.66093  Biso   1.000  O
  H66      1.0000 0.01882  0.35201  0.61208  Biso   1.000  H
  H67      1.0000 0.83270  0.37057  0.65140  Biso   1.000  H
  H68      1.0000 0.89141  0.43897  0.61449  Biso   1.000  H
  H69      1.0000 0.83981  0.43462  0.68522  Biso   1.000  H
  O38      1.0000 0.05468  0.73808  0.33907  Biso   1.000  O
  H70      1.0000 0.10110  0.68952  0.42959  Biso   1.000  H
  H71      1.0000 0.10111  0.68947  0.42959  Biso   1.000  H
  O39      1.0000 0.05475  0.73814  0.33907  Biso   1.000  O
  H72      1.0000 0.24749  0.77669  0.48738  Biso   1.000  H
  H73      1.0000 0.24755  0.77669  0.48738  Biso   1.000  H
  C48      1.0000 0.91600  0.26037  0.59669  Biso   1.000  C
  C49      1.0000 0.99509  0.67747  0.33960  Biso   1.000  C
  C50      1.0000 0.99515  0.67752  0.33960  Biso   1.000  C
  O40      1.0000 0.98143  0.23598  0.55638  Biso   1.000  O
  C51      1.0000 0.83503  0.21287  0.60732  Biso   1.000  C
  C52      1.0000 0.83503  0.21292  0.60732  Biso   1.000  C
  O41      1.0000 0.98143  0.23603  0.55638  Biso   1.000  O
  H74      1.0000 0.89889  0.31053  0.57041  Biso   1.000  H
  H75      1.0000 0.89896  0.31048  0.57041  Biso   1.000  H
  H76      1.0000 0.98118  0.64799  0.38792  Biso   1.000  H
  H77      1.0000 0.98125  0.64799  0.38792  Biso   1.000  H
  C53      1.0000 0.91204  0.70622  0.30342  Biso   1.000  C
  C54      1.0000 0.04967  0.63132  0.30081  Biso   1.000  C
  C55      1.0000 0.04974  0.63127  0.30081  Biso   1.000  C
  C56      1.0000 0.04974  0.63132  0.30081  Biso   1.000  C
  O42      1.0000 0.79879  0.21868  0.54439  Biso   1.000  O
  H78      1.0000 0.79134  0.22931  0.63711  Biso   1.000  H
  O43      1.0000 0.79885  0.21873  0.54439  Biso   1.000  O
  C57      1.0000 0.86026  0.13249  0.64381  Biso   1.000  C
  C58      1.0000 0.01212  0.16180  0.58690  Biso   1.000  C
  O44      1.0000 0.85837  0.74522  0.34091  Biso   1.000  O
  H79      1.0000 0.92779  0.73979  0.25709  Biso   1.000  H
  O45      1.0000 0.85843  0.74517  0.34091  Biso   1.000  O
  C59      1.0000 0.86070  0.64274  0.29358  Biso   1.000  C
  O46      1.0000 0.85843  0.74522  0.34091  Biso   1.000  O
  C60      1.0000 0.86076  0.64269  0.29358  Biso   1.000  C
  H80      1.0000 0.92785  0.73979  0.25709  Biso   1.000  H
  O47      1.0000 0.99571  0.57351  0.29280  Biso   1.000  O
  H81      1.0000 0.06983  0.66261  0.25458  Biso   1.000  H
  C61      1.0000 0.12869  0.59327  0.34112  Biso   1.000  C
  C62      1.0000 0.12876  0.59332  0.34112  Biso   1.000  C
  H82      1.0000 0.75251  0.22331  0.51262  Biso   1.000  H
  O48      1.0000 0.78702  0.08591  0.65538  Biso   1.000  O
  C63      1.0000 0.93391  0.10922  0.60140  Biso   1.000  C
  H83      1.0000 0.88310  0.13009  0.68951  Biso   1.000  H
  C64      1.0000 0.93391  0.10917  0.60140  Biso   1.000  C
  C65      1.0000 0.08308  0.14671  0.53811  Biso   1.000  C
  H84      1.0000 0.03867  0.15880  0.63150  Biso   1.000  H
  C66      1.0000 0.08314  0.14671  0.53811  Biso   1.000  C
  H85      1.0000 0.03874  0.15880  0.63150  Biso   1.000  H
  C67      1.0000 0.92323  0.59956  0.25552  Biso   1.000  C
  H86      1.0000 0.80994  0.66181  0.26458  Biso   1.000  H
  O49      1.0000 0.83116  0.59319  0.35740  Biso   1.000  O
  H87      1.0000 0.84178  0.72327  0.38881  Biso   1.000  H
  H88      1.0000 0.84185  0.72332  0.38881  Biso   1.000  H
  H89      1.0000 0.16019  0.56538  0.31478  Biso   1.000  H
  H90      1.0000 0.16730  0.62943  0.34860  Biso   1.000  H
  H91      1.0000 0.10859  0.56103  0.38551  Biso   1.000  H
  H92      1.0000 0.16025  0.56543  0.31478  Biso   1.000  H
  H93      1.0000 0.10866  0.56103  0.38551  Biso   1.000  H
  H94      1.0000 0.78413  0.04980  0.69987  Biso   1.000  H
  O50      1.0000 0.96583  0.03679  0.63878  Biso   1.000  O
  H95      1.0000 0.91104  0.10790  0.55670  Biso   1.000  H
  H96      1.0000 0.12962  0.18191  0.53162  Biso   1.000  H
  H97      1.0000 0.10659  0.09818  0.55779  Biso   1.000  H
  H98      1.0000 0.05841  0.15039  0.49382  Biso   1.000  H
  H99      1.0000 0.10659  0.09823  0.55779  Biso   1.000  H
  H100     1.0000 0.10666  0.09823  0.55779  Biso   1.000  H
  O51      1.0000 0.94043  0.64631  0.18653  Biso   1.000  O
  H101     1.0000 0.89039  0.55728  0.25170  Biso   1.000  H
  O52      1.0000 0.94043  0.64626  0.18653  Biso   1.000  O
  H102     1.0000 0.89039  0.55734  0.25170  Biso   1.000  H
  H103     1.0000 0.89045  0.55728  0.25170  Biso   1.000  H
  H104     1.0000 0.86338  0.56000  0.39321  Biso   1.000  H
  H105     1.0000 0.86345  0.56000  0.39321  Biso   1.000  H
  C68      1.0000 0.97981  0.98763  0.60041  Biso   1.000  C
  C69      1.0000 0.97559  0.60870  0.13899  Biso   1.000  C
  C70      1.0000 0.97566  0.60870  0.13899  Biso   1.000  C
  O53      1.0000 0.89942  0.95324  0.59130  Biso   1.000  O
  C71      1.0000 0.05018  0.93208  0.63292  Biso   1.000  C
  C72      1.0000 0.05018  0.93213  0.63292  Biso   1.000  C
  C73      1.0000 0.05025  0.93208  0.63292  Biso   1.000  C
  H106     1.0000 0.00253  0.01561  0.55371  Biso   1.000  H
  C74      1.0000 0.90520  0.59838  0.09119  Biso   1.000  C
  C75      1.0000 0.90520  0.59843  0.09119  Biso   1.000  C
  C76      1.0000 0.04489  0.65378  0.09428  Biso   1.000  C
  H107     1.0000 0.00012  0.56100  0.16511  Biso   1.000  H
  C77      1.0000 0.04489  0.65383  0.09428  Biso   1.000  C
  C78      1.0000 0.04496  0.65383  0.09428  Biso   1.000  C
  C79      1.0000 0.86448  0.90328  0.65862  Biso   1.000  C
  C80      1.0000 0.86454  0.90333  0.65862  Biso   1.000  C
  O54      1.0000 0.07599  0.89351  0.58407  Biso   1.000  O
  H108     1.0000 0.10150  0.95790  0.64229  Biso   1.000  H
  C81      1.0000 0.01550  0.88052  0.69982  Biso   1.000  C
  O55      1.0000 0.07605  0.89351  0.58407  Biso   1.000  O
  C82      1.0000 0.82600  0.55898  0.12470  Biso   1.000  C
  O56      1.0000 0.94353  0.55673  0.04670  Biso   1.000  O
  C83      1.0000 0.82600  0.55903  0.12470  Biso   1.000  C
  H109     1.0000 0.88741  0.64683  0.06130  Biso   1.000  H
  C84      1.0000 0.08502  0.61288  0.04450  Biso   1.000  C
  O57      1.0000 0.11791  0.66920  0.13412  Biso   1.000  O
  H110     1.0000 0.01902  0.70031  0.06669  Biso   1.000  H
  C85      1.0000 0.08502  0.61294  0.04450  Biso   1.000  C
  C86      1.0000 0.93222  0.84489  0.69082  Biso   1.000  C
  C87      1.0000 0.78002  0.87530  0.64119  Biso   1.000  C
  H111     1.0000 0.85120  0.93220  0.69092  Biso   1.000  H
  H112     1.0000 0.06489  0.84260  0.60449  Biso   1.000  H
  H113     1.0000 0.06495  0.84260  0.60449  Biso   1.000  H
  O58      1.0000 0.08107  0.82560  0.72558  Biso   1.000  O
  H114     1.0000 0.00428  0.90769  0.73390  Biso   1.000  H
  O59      1.0000 0.08114  0.82560  0.72558  Biso   1.000  O
  H115     1.0000 0.00435  0.90769  0.73390  Biso   1.000  H
  C88      1.0000 0.01587  0.59340  0.00340  Biso   1.000  C
  C89      1.0000 0.01594  0.59340  0.00340  Biso   1.000  C
  H116     1.0000 0.84213  0.51053  0.15239  Biso   1.000  H
  H117     1.0000 0.79729  0.58473  0.15422  Biso   1.000  H
  H118     1.0000 0.78646  0.55580  0.08952  Biso   1.000  H
  H119     1.0000 0.79735  0.58468  0.15422  Biso   1.000  H
  O60      1.0000 0.13239  0.54812  0.08219  Biso   1.000  O
  H120     1.0000 0.12699  0.64575  0.01178  Biso   1.000  H
  O61      1.0000 0.13246  0.54812  0.08219  Biso   1.000  O
  H121     1.0000 0.12706  0.64569  0.01178  Biso   1.000  H
  H122     1.0000 0.10178  0.71674  0.13669  Biso   1.000  H
  H123     1.0000 0.10185  0.71669  0.13669  Biso   1.000  H
  O62      1.0000 0.89562  0.80221  0.75751  Biso   1.000  O
  H124     1.0000 0.94367  0.81338  0.66061  Biso   1.000  H
  H125     1.0000 0.94373  0.81338  0.66061  Biso   1.000  H
  H126     1.0000 0.94373  0.81343  0.66061  Biso   1.000  H
  H127     1.0000 0.74133  0.91588  0.62109  Biso   1.000  H
  H128     1.0000 0.79190  0.84828  0.60831  Biso   1.000  H
  H129     1.0000 0.75231  0.84377  0.68312  Biso   1.000  H
  H130     1.0000 0.74132  0.91594  0.62109  Biso   1.000  H
  H131     1.0000 0.79190  0.84834  0.60831  Biso   1.000  H
  H132     1.0000 0.75230  0.84382  0.68312  Biso   1.000  H
  H133     1.0000 0.09841  0.82439  0.77102  Biso   1.000  H
  O63      1.0000 0.98881  0.65988  0.95377  Biso   1.000  O
  O64      1.0000 0.98881  0.65993  0.95377  Biso   1.000  O
  H134     1.0000 0.04188  0.56092  0.97801  Biso   1.000  H
  H135     1.0000 0.04194  0.56092  0.97801  Biso   1.000  H
  H136     1.0000 0.18199  0.52635  0.06518  Biso   1.000  H
  H137     1.0000 0.18206  0.52630  0.06518  Biso   1.000  H
  C90      1.0000 0.87020  0.72781  0.76290  Biso   1.000  C
  C91      1.0000 0.93601  0.64961  0.89739  Biso   1.000  C
  C92      1.0000 0.80682  0.70140  0.82719  Biso   1.000  C
  O65      1.0000 0.94411  0.68209  0.77002  Biso   1.000  O
  H138     1.0000 0.83949  0.72757  0.72081  Biso   1.000  H
  H139     1.0000 0.83956  0.72762  0.72081  Biso   1.000  H
  C93      1.0000 0.85321  0.69633  0.89399  Biso   1.000  C
  C94      1.0000 0.99339  0.67548  0.83080  Biso   1.000  C
  C95      1.0000 0.85321  0.69628  0.89399  Biso   1.000  C
  H140     1.0000 0.92072  0.59776  0.90682  Biso   1.000  H
  C96      1.0000 0.99338  0.67553  0.83080  Biso   1.000  C
  C97      1.0000 0.99345  0.67553  0.83080  Biso   1.000  C
  H141     1.0000 0.75621  0.73521  0.82248  Biso   1.000  H
  O66      1.0000 0.77701  0.63055  0.82928  Biso   1.000  O
  O67      1.0000 0.79331  0.66992  0.95268  Biso   1.000  O
  H142     1.0000 0.87110  0.74589  0.89242  Biso   1.000  H
  H143     1.0000 0.01813  0.72349  0.82782  Biso   1.000  H
  C98      1.0000 0.06729  0.62383  0.82761  Biso   1.000  C
  C99      1.0000 0.06735  0.62378  0.82761  Biso   1.000  C
  H144     1.0000 0.74827  0.63270  0.78740  Biso   1.000  H
  H145     1.0000 0.74834  0.63270  0.78740  Biso   1.000  H
  H146     1.0000 0.73722  0.66121  0.93718  Biso   1.000  H
  H147     1.0000 0.10132  0.64281  0.78458  Biso   1.000  H
  H148     1.0000 0.10453  0.61849  0.86640  Biso   1.000  H
  H149     1.0000 0.04363  0.57690  0.82949  Biso   1.000  H
  C100     1.0000 0.47720  0.60838  0.98450  Biso   1.000  C
  C101     1.0000 0.36600  0.66398  0.91132  Biso   1.000  C
  O68      1.0000 0.47004  0.65059  0.03042  Biso   1.000  O
  H150     1.0000 0.49951  0.56009  0.01152  Biso   1.000  H
  C102     1.0000 0.55301  0.64440  0.92912  Biso   1.000  C
  O69      1.0000 0.40470  0.59611  0.95430  Biso   1.000  O
  C103     1.0000 0.55301  0.64435  0.92912  Biso   1.000  C
  C104     1.0000 0.43090  0.69840  0.85049  Biso   1.000  C
  H151     1.0000 0.35580  0.69779  0.93938  Biso   1.000  H
  C105     1.0000 0.27937  0.64443  0.88870  Biso   1.000  C
  C106     1.0000 0.27944  0.64437  0.88870  Biso   1.000  C
  C107     1.0000 0.43149  0.60851  0.09852  Biso   1.000  C
  C108     1.0000 0.51661  0.71528  0.87902  Biso   1.000  C
  O70      1.0000 0.57802  0.59481  0.89111  Biso   1.000  O
  H152     1.0000 0.60403  0.65530  0.95278  Biso   1.000  H
  O71      1.0000 0.39236  0.76620  0.80840  Biso   1.000  O
  H153     1.0000 0.44210  0.66476  0.82222  Biso   1.000  H
  O72      1.0000 0.39242  0.76620  0.80840  Biso   1.000  O
  H154     1.0000 0.44210  0.66481  0.82222  Biso   1.000  H
  H155     1.0000 0.24170  0.62308  0.92922  Biso   1.000  H
  H156     1.0000 0.25168  0.68781  0.85960  Biso   1.000  H
  H157     1.0000 0.25168  0.68775  0.85960  Biso   1.000  H
  H158     1.0000 0.28913  0.60971  0.86289  Biso   1.000  H
  H159     1.0000 0.25175  0.68781  0.85960  Biso   1.000  H
  C109     1.0000 0.50121  0.59078  0.14972  Biso   1.000  C
  H160     1.0000 0.40539  0.56318  0.09491  Biso   1.000  H
  C110     1.0000 0.35856  0.65687  0.12041  Biso   1.000  C
  C111     1.0000 0.35862  0.65687  0.12041  Biso   1.000  C
  H161     1.0000 0.60101  0.55089  0.92179  Biso   1.000  H
  O73      1.0000 0.58149  0.74757  0.82552  Biso   1.000  O
  H162     1.0000 0.50329  0.74986  0.90593  Biso   1.000  H
  H163     1.0000 0.50329  0.74988  0.90587  Biso   1.000  H
  H164     1.0000 0.50329  0.74991  0.90593  Biso   1.000  H
  C112     1.0000 0.35740  0.76485  0.74322  Biso   1.000  C
  O74      1.0000 0.46759  0.55328  0.21982  Biso   1.000  O
  H165     1.0000 0.52818  0.63681  0.15040  Biso   1.000  H
  H166     1.0000 0.52818  0.63676  0.15040  Biso   1.000  H
  C113     1.0000 0.57377  0.54063  0.13527  Biso   1.000  C
  C114     1.0000 0.57384  0.54058  0.13527  Biso   1.000  C
  H167     1.0000 0.52825  0.63681  0.15040  Biso   1.000  H
  C115     1.0000 0.32218  0.61566  0.19302  Biso   1.000  C
  C116     1.0000 0.32218  0.61571  0.19302  Biso   1.000  C
  C117     1.0000 0.32225  0.61571  0.19302  Biso   1.000  C
  O75      1.0000 0.29189  0.67609  0.06968  Biso   1.000  O
  H168     1.0000 0.38612  0.70209  0.12271  Biso   1.000  H
  H169     1.0000 0.60252  0.71921  0.79630  Biso   1.000  H
  H170     1.0000 0.32311  0.72009  0.75008  Biso   1.000  H
  C118     1.0000 0.29868  0.83031  0.72149  Biso   1.000  C
  O76      1.0000 0.42733  0.76832  0.69270  Biso   1.000  O
  C119     1.0000 0.39849  0.59509  0.24217  Biso   1.000  C
  H171     1.0000 0.60232  0.56347  0.09062  Biso   1.000  H
  H172     1.0000 0.61649  0.53182  0.17108  Biso   1.000  H
  H173     1.0000 0.54874  0.49488  0.13522  Biso   1.000  H
  H174     1.0000 0.27990  0.64699  0.20961  Biso   1.000  H
  O77      1.0000 0.27982  0.55296  0.18878  Biso   1.000  O
  O78      1.0000 0.27982  0.55301  0.18878  Biso   1.000  O
  H175     1.0000 0.23617  0.65895  0.09161  Biso   1.000  H
  H176     1.0000 0.23624  0.65900  0.09161  Biso   1.000  H
  O79      1.0000 0.25771  0.82401  0.66093  Biso   1.000  O
  C120     1.0000 0.34338  0.90241  0.70071  Biso   1.000  C
  H177     1.0000 0.25364  0.82870  0.75861  Biso   1.000  H
  C121     1.0000 0.48078  0.83238  0.67872  Biso   1.000  C
  C122     1.0000 0.48084  0.83238  0.67872  Biso   1.000  C
  O80      1.0000 0.43409  0.66037  0.25029  Biso   1.000  O
  O81      1.0000 0.43409  0.66042  0.25029  Biso   1.000  O
  H178     1.0000 0.37487  0.56553  0.28809  Biso   1.000  H
  H179     1.0000 0.37494  0.56547  0.28809  Biso   1.000  H
  H180     1.0000 0.27116  0.51888  0.23401  Biso   1.000  H
  H181     1.0000 0.27123  0.51888  0.23401  Biso   1.000  H
  H182     1.0000 0.20055  0.82452  0.68207  Biso   1.000  H
  C123     1.0000 0.42736  0.90139  0.65402  Biso   1.000  C
  H183     1.0000 0.36468  0.90870  0.74411  Biso   1.000  H
  O82      1.0000 0.29211  0.96355  0.67181  Biso   1.000  O
  C124     1.0000 0.42742  0.90139  0.65402  Biso   1.000  C
  H184     1.0000 0.36475  0.90870  0.74411  Biso   1.000  H
  C125     1.0000 0.55443  0.82561  0.62522  Biso   1.000  C
  H185     1.0000 0.50845  0.83220  0.72218  Biso   1.000  H
  C126     1.0000 0.49039  0.65091  0.30960  Biso   1.000  C
  C127     1.0000 0.49039  0.65086  0.30960  Biso   1.000  C
  H186     1.0000 0.23270  0.94937  0.66972  Biso   1.000  H
  H187     1.0000 0.23269  0.94942  0.66972  Biso   1.000  H
  O83      1.0000 0.48391  0.96329  0.65171  Biso   1.000  O
  H188     1.0000 0.40918  0.90639  0.60638  Biso   1.000  H
  H189     1.0000 0.58659  0.78058  0.64360  Biso   1.000  H
  H190     1.0000 0.59395  0.86639  0.61648  Biso   1.000  H
  H191     1.0000 0.52839  0.82568  0.58229  Biso   1.000  H
  H192     1.0000 0.59402  0.86639  0.61648  Biso   1.000  H
  C128     1.0000 0.57818  0.69250  0.28458  Biso   1.000  C
  C129     1.0000 0.44250  0.68587  0.36028  Biso   1.000  C
  H193     1.0000 0.50186  0.59868  0.33243  Biso   1.000  H
  C130     1.0000 0.44250  0.68592  0.36028  Biso   1.000  C
  H194     1.0000 0.50192  0.59868  0.33243  Biso   1.000  H
  C131     1.0000 0.50789  0.00875  0.58622  Biso   1.000  C
  C132     1.0000 0.62991  0.69610  0.34541  Biso   1.000  C
  O84      1.0000 0.62982  0.66019  0.24039  Biso   1.000  O
  H195     1.0000 0.56357  0.74286  0.25730  Biso   1.000  H
  H196     1.0000 0.56364  0.74291  0.25730  Biso   1.000  H
  O85      1.0000 0.49476  0.68699  0.41729  Biso   1.000  O
  C133     1.0000 0.35956  0.64118  0.39561  Biso   1.000  C
  O86      1.0000 0.49483  0.68699  0.41729  Biso   1.000  O
  C134     1.0000 0.35963  0.64118  0.39561  Biso   1.000  C
  H197     1.0000 0.42460  0.73605  0.33510  Biso   1.000  H
  H198     1.0000 0.52818  0.97811  0.55690  Biso   1.000  H
  C135     1.0000 0.58338  0.05301  0.59481  Biso   1.000  C
  O87      1.0000 0.43857  0.05481  0.55219  Biso   1.000  O
  C136     1.0000 0.58338  0.05295  0.59481  Biso   1.000  C
  O88      1.0000 0.43863  0.05476  0.55219  Biso   1.000  O
  C137     1.0000 0.58344  0.05301  0.59481  Biso   1.000  C
  O89      1.0000 0.43863  0.05481  0.55219  Biso   1.000  O
  C138     1.0000 0.57381  0.72870  0.39389  Biso   1.000  C
  H199     1.0000 0.68172  0.72731  0.32798  Biso   1.000  H
  O90      1.0000 0.65899  0.62501  0.38572  Biso   1.000  O
  H200     1.0000 0.59542  0.65858  0.20218  Biso   1.000  H
  H201     1.0000 0.33099  0.66448  0.42729  Biso   1.000  H
  H202     1.0000 0.31939  0.63928  0.36038  Biso   1.000  H
  H203     1.0000 0.31939  0.63933  0.36038  Biso   1.000  H
  H204     1.0000 0.37721  0.59232  0.42111  Biso   1.000  H
  O91      1.0000 0.62490  0.08829  0.52492  Biso   1.000  O
  C139     1.0000 0.55529  0.11150  0.62931  Biso   1.000  C
  H205     1.0000 0.62680  0.02016  0.62391  Biso   1.000  H
  H206     1.0000 0.62680  0.02022  0.62391  Biso   1.000  H
  C140     1.0000 0.40721  0.10317  0.59062  Biso   1.000  C
  O92      1.0000 0.55477  0.80156  0.36001  Biso   1.000  O
  H207     1.0000 0.60807  0.72651  0.43488  Biso   1.000  H
  O93      1.0000 0.55483  0.80161  0.36001  Biso   1.000  O
  H208     1.0000 0.60814  0.72651  0.43488  Biso   1.000  H
  H209     1.0000 0.71858  0.61362  0.37582  Biso   1.000  H
  H210     1.0000 0.63669  0.13777  0.49880  Biso   1.000  H
  H211     1.0000 0.63669  0.13782  0.49880  Biso   1.000  H
  O94      1.0000 0.62710  0.15821  0.63051  Biso   1.000  O
  C141     1.0000 0.47749  0.15578  0.59528  Biso   1.000  C
  H212     1.0000 0.53729  0.08631  0.67799  Biso   1.000  H
  O95      1.0000 0.62710  0.15815  0.63051  Biso   1.000  O
  H213     1.0000 0.53729  0.08626  0.67799  Biso   1.000  H
  C142     1.0000 0.47749  0.15583  0.59528  Biso   1.000  C
  H214     1.0000 0.38846  0.07399  0.63800  Biso   1.000  H
  C143     1.0000 0.32802  0.14137  0.55340  Biso   1.000  C
  H215     1.0000 0.38853  0.07399  0.63800  Biso   1.000  H
  C144     1.0000 0.32802  0.14142  0.55340  Biso   1.000  C
  C145     1.0000 0.52248  0.84419  0.40472  Biso   1.000  C
  H216     1.0000 0.68227  0.13317  0.63972  Biso   1.000  H
  H217     1.0000 0.68233  0.13317  0.63972  Biso   1.000  H
  O96      1.0000 0.44520  0.19841  0.63999  Biso   1.000  O
  H218     1.0000 0.49461  0.18790  0.54858  Biso   1.000  H
  O97      1.0000 0.44520  0.19836  0.63999  Biso   1.000  O
  H219     1.0000 0.28498  0.10566  0.55172  Biso   1.000  H
  H220     1.0000 0.34551  0.16948  0.50660  Biso   1.000  H
  H221     1.0000 0.30259  0.17357  0.57800  Biso   1.000  H
  H222     1.0000 0.28498  0.10571  0.55172  Biso   1.000  H
  H223     1.0000 0.30259  0.17362  0.57800  Biso   1.000  H
  C146     1.0000 0.59276  0.89680  0.40938  Biso   1.000  C
  C147     1.0000 0.59283  0.89680  0.40938  Biso   1.000  C
  H224     1.0000 0.50543  0.81207  0.45142  Biso   1.000  H
  C148     1.0000 0.44468  0.88852  0.37069  Biso   1.000  C
  C149     1.0000 0.44475  0.88847  0.37069  Biso   1.000  C
  C150     1.0000 0.42617  0.27127  0.60611  Biso   1.000  C
  C151     1.0000 0.42623  0.27127  0.60611  Biso   1.000  C
  C152     1.0000 0.41660  0.94696  0.40519  Biso   1.000  C
  O98      1.0000 0.37287  0.84176  0.36949  Biso   1.000  O
  H225     1.0000 0.46268  0.91366  0.32201  Biso   1.000  H
  C153     1.0000 0.41659  0.94702  0.40519  Biso   1.000  C
  O99      1.0000 0.37287  0.84182  0.36949  Biso   1.000  O
  H226     1.0000 0.46268  0.91371  0.32201  Biso   1.000  H
  O100     1.0000 0.37294  0.84182  0.36949  Biso   1.000  O
  H227     1.0000 0.46274  0.91371  0.32201  Biso   1.000  H
  H228     1.0000 0.61151  0.92598  0.36200  Biso   1.000  H
  O101     1.0000 0.56140  0.94516  0.44781  Biso   1.000  O
  C154     1.0000 0.67202  0.85855  0.44660  Biso   1.000  C
  O102     1.0000 0.56140  0.94521  0.44781  Biso   1.000  O
  C155     1.0000 0.37006  0.30387  0.65459  Biso   1.000  C
  O103     1.0000 0.50521  0.31298  0.58271  Biso   1.000  O
  C156     1.0000 0.37013  0.30387  0.65459  Biso   1.000  C
  C157     1.0000 0.37012  0.30393  0.65459  Biso   1.000  C
  H229     1.0000 0.39190  0.27352  0.56512  Biso   1.000  H
  H230     1.0000 0.37317  0.97981  0.37609  Biso   1.000  H
  O104     1.0000 0.37513  0.91168  0.47508  Biso   1.000  O
  C158     1.0000 0.49209  0.99122  0.41378  Biso   1.000  C
  O105     1.0000 0.37513  0.91173  0.47508  Biso   1.000  O
  H231     1.0000 0.37324  0.97981  0.37609  Biso   1.000  H
  H232     1.0000 0.31771  0.86680  0.36028  Biso   1.000  H
  H233     1.0000 0.71499  0.89431  0.44828  Biso   1.000  H
  H234     1.0000 0.69738  0.82640  0.42200  Biso   1.000  H
  H235     1.0000 0.71499  0.89426  0.44828  Biso   1.000  H
  H236     1.0000 0.65453  0.83049  0.49340  Biso   1.000  H
  H237     1.0000 0.69745  0.82640  0.42200  Biso   1.000  H
  C159     1.0000 0.42179  0.30747  0.71542  Biso   1.000  C
  H238     1.0000 0.31832  0.27266  0.67202  Biso   1.000  H
  O106     1.0000 0.34098  0.37496  0.61428  Biso   1.000  O
  H239     1.0000 0.31831  0.27272  0.67202  Biso   1.000  H
  O107     1.0000 0.34105  0.37501  0.61428  Biso   1.000  O
  C160     1.0000 0.55748  0.31405  0.63972  Biso   1.000  C
  C161     1.0000 0.55754  0.31410  0.63972  Biso   1.000  C
  H240     1.0000 0.47179  0.02191  0.44310  Biso   1.000  H
  O108     1.0000 0.51613  0.03667  0.34829  Biso   1.000  O
  H241     1.0000 0.47179  0.02186  0.44310  Biso   1.000  H
  O109     1.0000 0.51613  0.03673  0.34829  Biso   1.000  O
  H242     1.0000 0.36329  0.86220  0.50120  Biso   1.000  H
  H243     1.0000 0.28139  0.38641  0.62418  Biso   1.000  H
  O110     1.0000 0.37016  0.33978  0.75961  Biso   1.000  O
  C162     1.0000 0.50958  0.34906  0.69040  Biso   1.000  C
  O111     1.0000 0.37022  0.33978  0.75961  Biso   1.000  O
  H244     1.0000 0.43640  0.25706  0.74270  Biso   1.000  H
  C163     1.0000 0.50965  0.34911  0.69040  Biso   1.000  C
  C164     1.0000 0.64041  0.35879  0.60439  Biso   1.000  C
  H245     1.0000 0.57537  0.26392  0.66490  Biso   1.000  H
  H246     1.0000 0.57544  0.26386  0.66490  Biso   1.000  H
  C165     1.0000 0.57262  0.09858  0.34598  Biso   1.000  C
  C166     1.0000 0.57262  0.09863  0.34598  Biso   1.000  C
  H247     1.0000 0.40461  0.34139  0.79782  Biso   1.000  H
  O112     1.0000 0.56588  0.33960  0.74971  Biso   1.000  O
  H248     1.0000 0.49811  0.40129  0.66757  Biso   1.000  H
  O113     1.0000 0.56588  0.33955  0.74971  Biso   1.000  O
  H249     1.0000 0.66898  0.33549  0.57271  Biso   1.000  H
  H250     1.0000 0.62283  0.40765  0.57889  Biso   1.000  H
  H251     1.0000 0.62283  0.40771  0.57889  Biso   1.000  H
  H252     1.0000 0.68065  0.36069  0.63962  Biso   1.000  H
  C167     1.0000 0.51920  0.16759  0.32128  Biso   1.000  C
  H253     1.0000 0.59079  0.09358  0.39362  Biso   1.000  H
  C168     1.0000 0.65659  0.09756  0.29929  Biso   1.000  C
  C169     1.0000 0.60149  0.40489  0.75777  Biso   1.000  C
  C170     1.0000 0.70129  0.16971  0.27851  Biso   1.000  C
  H254     1.0000 0.63529  0.09127  0.25589  Biso   1.000  H
  C171     1.0000 0.70129  0.16966  0.27851  Biso   1.000  C
  O114     1.0000 0.70793  0.03636  0.32819  Biso   1.000  O
  O115     1.0000 0.70793  0.03642  0.32819  Biso   1.000  O
  H255     1.0000 0.63529  0.09132  0.25589  Biso   1.000  H
  O116     1.0000 0.57271  0.23170  0.30730  Biso   1.000  O
  C172     1.0000 0.44561  0.17441  0.37478  Biso   1.000  C
  H256     1.0000 0.49159  0.16777  0.27782  Biso   1.000  H
  C173     1.0000 0.44561  0.17436  0.37478  Biso   1.000  C
  C174     1.0000 0.67779  0.38431  0.80698  Biso   1.000  C
  O117     1.0000 0.53239  0.44669  0.78018  Biso   1.000  O
  H257     1.0000 0.62510  0.43450  0.71191  Biso   1.000  H
  C175     1.0000 0.67779  0.38426  0.80698  Biso   1.000  C
  C176     1.0000 0.64257  0.23507  0.25678  Biso   1.000  C
  H258     1.0000 0.74640  0.17127  0.24139  Biso   1.000  H
  O118     1.0000 0.74232  0.17601  0.33907  Biso   1.000  O
  C177     1.0000 0.64257  0.23512  0.25678  Biso   1.000  C
  H259     1.0000 0.74640  0.17133  0.24139  Biso   1.000  H
  C178     1.0000 0.64264  0.23507  0.25678  Biso   1.000  C
  H260     1.0000 0.76734  0.05060  0.33028  Biso   1.000  H
  H261     1.0000 0.41338  0.21939  0.35640  Biso   1.000  H
  H262     1.0000 0.40602  0.13358  0.38352  Biso   1.000  H
  H263     1.0000 0.47159  0.17429  0.41771  Biso   1.000  H
  C179     1.0000 0.64142  0.34310  0.87959  Biso   1.000  C
  O119     1.0000 0.72022  0.44696  0.81122  Biso   1.000  O
  O120     1.0000 0.72021  0.44701  0.81122  Biso   1.000  O
  H264     1.0000 0.72007  0.35303  0.79039  Biso   1.000  H
  H265     1.0000 0.72014  0.35298  0.79039  Biso   1.000  H
  C180     1.0000 0.49877  0.40919  0.85028  Biso   1.000  C
  C181     1.0000 0.49883  0.40919  0.85028  Biso   1.000  C
  O121     1.0000 0.60761  0.23382  0.19160  Biso   1.000  O
  H266     1.0000 0.67693  0.27988  0.24992  Biso   1.000  H
  H267     1.0000 0.79949  0.17545  0.31793  Biso   1.000  H
  C182     1.0000 0.56854  0.39151  0.90148  Biso   1.000  C
  O122     1.0000 0.70809  0.32388  0.93032  Biso   1.000  O
  H268     1.0000 0.61392  0.29788  0.87729  Biso   1.000  H
  H269     1.0000 0.72881  0.48109  0.76599  Biso   1.000  H
  C183     1.0000 0.42620  0.45940  0.86467  Biso   1.000  C
  H270     1.0000 0.47179  0.36321  0.84960  Biso   1.000  H
  C184     1.0000 0.56907  0.30157  0.14951  Biso   1.000  C
  C185     1.0000 0.56913  0.30157  0.14951  Biso   1.000  C
  O123     1.0000 0.53000  0.34938  0.96958  Biso   1.000  O
  H271     1.0000 0.59465  0.43679  0.90509  Biso   1.000  H
  H272     1.0000 0.76380  0.34097  0.90839  Biso   1.000  H
  H273     1.0000 0.76380  0.34102  0.90839  Biso   1.000  H
  H274     1.0000 0.45130  0.50509  0.86478  Biso   1.000  H
  H275     1.0000 0.39766  0.43650  0.90938  Biso   1.000  H
  H276     1.0000 0.38348  0.46815  0.82892  Biso   1.000  H
  H277     1.0000 0.39772  0.43650  0.90938  Biso   1.000  H
  H278     1.0000 0.38355  0.46820  0.82892  Biso   1.000  H
  C186     1.0000 0.48336  0.28469  0.12098  Biso   1.000  C
  C187     1.0000 0.48343  0.28469  0.12098  Biso   1.000  C
  H279     1.0000 0.55788  0.33516  0.17778  Biso   1.000  H
  C188     1.0000 0.63404  0.33599  0.08868  Biso   1.000  C
  H280     1.0000 0.55794  0.33521  0.17778  Biso   1.000  H
  C189     1.0000 0.52283  0.39159  0.01550  Biso   1.000  C
  C190     1.0000 0.44697  0.35557  0.07088  Biso   1.000  C
  O124     1.0000 0.41848  0.25240  0.17448  Biso   1.000  O
  H281     1.0000 0.49668  0.25011  0.09407  Biso   1.000  H
  C191     1.0000 0.44703  0.35557  0.07088  Biso   1.000  C
  H282     1.0000 0.49669  0.25006  0.09407  Biso   1.000  H
  C192     1.0000 0.44703  0.35562  0.07088  Biso   1.000  C
  O125     1.0000 0.41854  0.25240  0.17448  Biso   1.000  O
  C193     1.0000 0.72060  0.35560  0.11130  Biso   1.000  C
  O126     1.0000 0.59534  0.40391  0.04570  Biso   1.000  O
  H283     1.0000 0.64424  0.30218  0.06062  Biso   1.000  H
  H284     1.0000 0.50046  0.43988  0.98848  Biso   1.000  H
  H285     1.0000 0.50053  0.43988  0.98848  Biso   1.000  H
  H286     1.0000 0.50052  0.43993  0.98848  Biso   1.000  H
  H287     1.0000 0.39600  0.34467  0.04722  Biso   1.000  H
  O127     1.0000 0.42201  0.40516  0.10889  Biso   1.000  O
  H288     1.0000 0.39751  0.28081  0.20370  Biso   1.000  H
  H289     1.0000 0.74829  0.31222  0.14040  Biso   1.000  H
  H290     1.0000 0.71091  0.39031  0.13711  Biso   1.000  H
  H291     1.0000 0.75834  0.37688  0.07078  Biso   1.000  H
  H292     1.0000 0.39903  0.44908  0.07821  Biso   1.000  H
  Ne1      1.0000 0.00770  0.99667  0.01844  Biso   1.000  Ne
  He1      1.0000 0.00044  0.00041  0.99421  Biso   1.000  He
  He2      1.0000 0.03077  0.00288  0.97351  Biso   1.000  He
  Ar1      1.0000 0.00608  0.00150  0.01640  Biso   1.000  Ar
  Ne2      1.0000 0.49241  0.00792  0.00689  Biso   1.000  Ne
  He3      1.0000 0.43884  0.00941  0.98721  Biso   1.000  He
  He4      1.0000 0.52455  0.00050  0.99852  Biso   1.000  He
  Ar2      1.0000 0.49223  0.99798  0.00331  Biso   1.000  Ar
