data_image0
_cell_length_a       19.913
_cell_length_b       15.647
_cell_length_c       25.904
_cell_angle_alpha    90
_cell_angle_beta     91.16
_cell_angle_gamma    90

_symmetry_space_group_name_H-M    "P 1"
_symmetry_int_tables_number       1

loop_
  _symmetry_equiv_pos_as_xyz
  'x, y, z'

loop_
  _atom_site_label
  _atom_site_occupancy
  _atom_site_fract_x
  _atom_site_fract_y
  _atom_site_fract_z
  _atom_site_thermal_displace_type
  _atom_site_B_iso_or_equiv
  _atom_site_type_symbol
  C1       1.0000 0.57791  0.48827  0.40400  Biso   1.000  C
  O1       1.0000 0.60293  0.52700  0.35685  Biso   1.000  O
  H1       1.0000 0.59545  0.51895  0.43342  Biso   1.000  H
  H2       1.0000 0.52974  0.49083  0.40365  Biso   1.000  H
  H3       1.0000 0.59217  0.42979  0.40585  Biso   1.000  H
  C2       1.0000 0.67102  0.51799  0.35079  Biso   1.000  C
  C3       1.0000 0.69613  0.46571  0.31079  Biso   1.000  C
  C4       1.0000 0.71845  0.56349  0.38230  Biso   1.000  C
  C5       1.0000 0.64672  0.41772  0.27469  Biso   1.000  C
  C6       1.0000 0.76551  0.45708  0.30438  Biso   1.000  C
  Br1      1.0000 0.68494  0.64913  0.42747  Biso   1.000  Br
  C7       1.0000 0.78631  0.55110  0.37720  Biso   1.000  C
  C8       1.0000 0.62821  0.32933  0.29480  Biso   1.000  C
  H4       1.0000 0.66662  0.41177  0.24102  Biso   1.000  H
  H5       1.0000 0.60608  0.45140  0.27048  Biso   1.000  H
  C9       1.0000 0.81013  0.49837  0.33789  Biso   1.000  C
  H6       1.0000 0.78163  0.42372  0.27762  Biso   1.000  H
  C10      1.0000 0.84382  0.58682  0.41168  Biso   1.000  C
  C11      1.0000 0.56932  0.31591  0.32199  Biso   1.000  C
  C12      1.0000 0.67163  0.26037  0.28820  Biso   1.000  C
  C13      1.0000 0.88693  0.49377  0.33658  Biso   1.000  C
  C14      1.0000 0.88434  0.50840  0.43079  Biso   1.000  C
  H7       1.0000 0.82729  0.62159  0.44025  Biso   1.000  H
  C15      1.0000 0.88953  0.63737  0.37600  Biso   1.000  C
  C16      1.0000 0.55454  0.23730  0.34249  Biso   1.000  C
  H8       1.0000 0.53955  0.36096  0.32627  Biso   1.000  H
  C17      1.0000 0.65723  0.18067  0.30971  Biso   1.000  C
  O2       1.0000 0.73103  0.27143  0.26109  Biso   1.000  O
  C18      1.0000 0.90913  0.45900  0.39010  Biso   1.000  C
  H9       1.0000 0.90330  0.45926  0.30793  Biso   1.000  H
  C19      1.0000 0.91282  0.58637  0.33558  Biso   1.000  C
  C20      1.0000 0.89844  0.48680  0.48180  Biso   1.000  C
  C21      1.0000 0.90935  0.72129  0.38098  Biso   1.000  C
  C22      1.0000 0.49182  0.21410  0.37288  Biso   1.000  C
  C23      1.0000 0.59813  0.16719  0.33650  Biso   1.000  C
  Br2      1.0000 0.71890  0.08928  0.30025  Biso   1.000  Br
  C24      1.0000 0.72203  0.24740  0.20738  Biso   1.000  C
  C25      1.0000 0.94583  0.38602  0.40118  Biso   1.000  C
  C26      1.0000 0.95612  0.62089  0.29978  Biso   1.000  C
  C27      1.0000 0.93751  0.41503  0.49308  Biso   1.000  C
  H10      1.0000 0.88192  0.52016  0.50837  Biso   1.000  H
  C28      1.0000 0.95213  0.75721  0.34488  Biso   1.000  C
  H11      1.0000 0.89420  0.75407  0.40836  Biso   1.000  H
  C29      1.0000 0.45884  0.13977  0.34299  Biso   1.000  C
  C30      1.0000 0.51853  0.17620  0.42408  Biso   1.000  C
  H12      1.0000 0.46156  0.26267  0.37770  Biso   1.000  H
  C31      1.0000 0.57184  0.08372  0.36040  Biso   1.000  C
  H13      1.0000 0.70761  0.18892  0.20530  Biso   1.000  H
  H14      1.0000 0.68871  0.28350  0.19136  Biso   1.000  H
  H15      1.0000 0.76380  0.25372  0.18997  Biso   1.000  H
  Br3      1.0000 0.97504  0.31373  0.34701  Biso   1.000  Br
  C32      1.0000 0.96045  0.36339  0.45288  Biso   1.000  C
  H16      1.0000 0.97265  0.58740  0.27330  Biso   1.000  H
  C33      1.0000 0.97472  0.70710  0.30419  Biso   1.000  C
  C34      1.0000 0.95713  0.39548  0.54968  Biso   1.000  C
  H17      1.0000 0.96542  0.81402  0.34801  Biso   1.000  H
  C35      1.0000 0.39323  0.13498  0.32311  Biso   1.000  C
  C36      1.0000 0.50210  0.07030  0.33631  Biso   1.000  C
  C37      1.0000 0.55963  0.10500  0.41759  Biso   1.000  C
  C38      1.0000 0.50623  0.20381  0.47408  Biso   1.000  C
  H18      1.0000 0.60199  0.03496  0.35562  Biso   1.000  H
  O3       1.0000 0.99424  0.28843  0.46381  Biso   1.000  O
  H19      1.0000 0.00249  0.73119  0.27967  Biso   1.000  H
  C39      1.0000 0.90522  0.34447  0.57918  Biso   1.000  C
  H20      1.0000 0.96498  0.44916  0.56752  Biso   1.000  H
  H21      1.0000 0.99908  0.36397  0.55030  Biso   1.000  H
  C40      1.0000 0.37232  0.06167  0.29758  Biso   1.000  C
  H22      1.0000 0.36395  0.18074  0.32681  Biso   1.000  H
  C41      1.0000 0.48034  0.99591  0.31079  Biso   1.000  C
  C42      1.0000 0.58463  0.05822  0.45921  Biso   1.000  C
  Br4      1.0000 0.45971  0.30849  0.48470  Biso   1.000  Br
  C43      1.0000 0.53052  0.15658  0.51721  Biso   1.000  C
  C44      1.0000 0.06713  0.29220  0.46099  Biso   1.000  C
  C45      1.0000 0.90855  0.25538  0.58138  Biso   1.000  C
  C46      1.0000 0.85573  0.38698  0.60671  Biso   1.000  C
  H23      1.0000 0.32868  0.05899  0.28418  Biso   1.000  H
  C47      1.0000 0.41419  0.99259  0.29148  Biso   1.000  C
  H24      1.0000 0.50921  0.94977  0.30673  Biso   1.000  H
  H25      1.0000 0.61196  0.01099  0.45369  Biso   1.000  H
  C48      1.0000 0.56844  0.08257  0.50999  Biso   1.000  C
  O4       1.0000 0.52052  0.18751  0.56659  Biso   1.000  O
  H26      1.0000 0.08469  0.32626  0.48898  Biso   1.000  H
  H27      1.0000 0.08527  0.23544  0.46346  Biso   1.000  H
  H28      1.0000 0.07949  0.31731  0.42879  Biso   1.000  H
  C49      1.0000 0.86483  0.20962  0.61107  Biso   1.000  C
  H29      1.0000 0.94069  0.22662  0.56250  Biso   1.000  H
  C50      1.0000 0.80751  0.34000  0.63497  Biso   1.000  C
  O5       1.0000 0.85122  0.47543  0.60520  Biso   1.000  O
  H30      1.0000 0.39858  0.94382  0.27461  Biso   1.000  H
  C51      1.0000 0.59025  0.02818  0.55597  Biso   1.000  C
  C52      1.0000 0.45652  0.16553  0.58679  Biso   1.000  C
  C53      1.0000 0.86522  0.11350  0.62011  Biso   1.000  C
  C54      1.0000 0.81204  0.25168  0.63718  Biso   1.000  C
  Br5      1.0000 0.73899  0.39950  0.67042  Biso   1.000  Br
  C55      1.0000 0.88352  0.51607  0.64949  Biso   1.000  C
  H31      1.0000 0.56097  0.04020  0.58451  Biso   1.000  H
  C56      1.0000 0.66222  0.04308  0.57339  Biso   1.000  C
  H32      1.0000 0.58473  0.96843  0.54690  Biso   1.000  H
  H33      1.0000 0.45178  0.19103  0.62019  Biso   1.000  H
  H34      1.0000 0.42157  0.18611  0.56393  Biso   1.000  H
  H35      1.0000 0.45313  0.10449  0.58976  Biso   1.000  H
  C57      1.0000 0.79703  0.07950  0.60300  Biso   1.000  C
  H36      1.0000 0.90233  0.08474  0.60281  Biso   1.000  H
  C58      1.0000 0.86895  0.10321  0.67957  Biso   1.000  C
  C59      1.0000 0.76662  0.18847  0.66691  Biso   1.000  C
  H37      1.0000 0.86446  0.49441  0.68065  Biso   1.000  H
  H38      1.0000 0.93078  0.50393  0.64957  Biso   1.000  H
  H39      1.0000 0.87670  0.57672  0.64764  Biso   1.000  H
  C60      1.0000 0.67723  0.10507  0.61158  Biso   1.000  C
  C61      1.0000 0.71546  0.99719  0.55281  Biso   1.000  C
  C62      1.0000 0.74345  0.12232  0.62609  Biso   1.000  C
  C63      1.0000 0.78322  0.01617  0.56698  Biso   1.000  C
  C64      1.0000 0.81522  0.14162  0.70440  Biso   1.000  C
  C65      1.0000 0.91925  0.06033  0.70737  Biso   1.000  C
  H40      1.0000 0.72931  0.21665  0.68420  Biso   1.000  H
  H41      1.0000 0.64259  0.13472  0.62710  Biso   1.000  H
  O6       1.0000 0.70274  0.93679  0.51420  Biso   1.000  O
  Br6      1.0000 0.85364  0.95590  0.53485  Biso   1.000  Br
  C66      1.0000 0.81074  0.13811  0.75768  Biso   1.000  C
  C67      1.0000 0.91383  0.05841  0.76120  Biso   1.000  C
  H42      1.0000 0.95487  0.03406  0.69096  Biso   1.000  H
  C68      1.0000 0.69644  0.85071  0.53439  Biso   1.000  C
  H43      1.0000 0.77523  0.16399  0.77440  Biso   1.000  H
  C69      1.0000 0.86135  0.09433  0.78587  Biso   1.000  C
  H44      1.0000 0.94734  0.03157  0.78070  Biso   1.000  H
  H45      1.0000 0.66149  0.84930  0.55933  Biso   1.000  H
  H46      1.0000 0.68547  0.81217  0.50663  Biso   1.000  H
  H47      1.0000 0.73815  0.83377  0.55049  Biso   1.000  H
  H48      1.0000 0.85873  0.08999  0.82162  Biso   1.000  H
  C70      1.0000 0.42211  0.51173  0.59598  Biso   1.000  C
  O7       1.0000 0.39714  0.47300  0.64312  Biso   1.000  O
  H49      1.0000 0.40462  0.48105  0.56655  Biso   1.000  H
  H50      1.0000 0.47028  0.50917  0.59632  Biso   1.000  H
  H51      1.0000 0.40785  0.57021  0.59412  Biso   1.000  H
  C71      1.0000 0.32905  0.48201  0.64918  Biso   1.000  C
  C72      1.0000 0.28162  0.43651  0.61768  Biso   1.000  C
  C73      1.0000 0.30394  0.53429  0.68919  Biso   1.000  C
  C74      1.0000 0.21371  0.44890  0.62277  Biso   1.000  C
  Br7      1.0000 0.31508  0.35087  0.57250  Biso   1.000  Br
  C75      1.0000 0.23451  0.54292  0.69559  Biso   1.000  C
  C76      1.0000 0.35335  0.58228  0.72529  Biso   1.000  C
  C77      1.0000 0.15620  0.41318  0.58829  Biso   1.000  C
  C78      1.0000 0.18994  0.50163  0.66208  Biso   1.000  C
  H52      1.0000 0.21839  0.57628  0.72235  Biso   1.000  H
  H53      1.0000 0.33345  0.58823  0.75896  Biso   1.000  H
  H54      1.0000 0.39399  0.54860  0.72950  Biso   1.000  H
  C79      1.0000 0.37186  0.67067  0.70517  Biso   1.000  C
  C80      1.0000 0.11573  0.49160  0.56918  Biso   1.000  C
  H55      1.0000 0.17278  0.37841  0.55976  Biso   1.000  H
  C81      1.0000 0.11054  0.36263  0.62401  Biso   1.000  C
  C82      1.0000 0.11314  0.50623  0.66339  Biso   1.000  C
  C83      1.0000 0.43075  0.68409  0.67799  Biso   1.000  C
  C84      1.0000 0.32844  0.73963  0.71177  Biso   1.000  C
  C85      1.0000 0.10163  0.51320  0.51821  Biso   1.000  C
  C86      1.0000 0.09094  0.54100  0.60988  Biso   1.000  C
  C87      1.0000 0.08725  0.41363  0.66440  Biso   1.000  C
  C88      1.0000 0.09072  0.27871  0.61899  Biso   1.000  C
  H56      1.0000 0.09672  0.54074  0.69208  Biso   1.000  H
  C89      1.0000 0.44553  0.76270  0.65748  Biso   1.000  C
  H57      1.0000 0.46047  0.63904  0.67370  Biso   1.000  H
  C90      1.0000 0.34284  0.81933  0.69031  Biso   1.000  C
  O8       1.0000 0.26904  0.72857  0.73888  Biso   1.000  O
  C91      1.0000 0.06251  0.58497  0.50690  Biso   1.000  C
  H58      1.0000 0.11815  0.47984  0.49161  Biso   1.000  H
  C92      1.0000 0.05424  0.61398  0.59879  Biso   1.000  C
  C93      1.0000 0.04395  0.37911  0.70019  Biso   1.000  C
  C94      1.0000 0.04794  0.24279  0.65509  Biso   1.000  C
  H59      1.0000 0.10582  0.24593  0.59161  Biso   1.000  H
  C95      1.0000 0.40195  0.83281  0.66351  Biso   1.000  C
  C96      1.0000 0.50825  0.78590  0.62710  Biso   1.000  C
  Br8      1.0000 0.28112  0.91072  0.69973  Biso   1.000  Br
  C97      1.0000 0.27804  0.75260  0.79259  Biso   1.000  C
  C98      1.0000 0.04294  0.60452  0.45029  Biso   1.000  C
  C99      1.0000 0.03962  0.63661  0.54709  Biso   1.000  C
  Br9      1.0000 0.02503  0.68627  0.65297  Biso   1.000  Br
  H60      1.0000 0.02742  0.41260  0.72672  Biso   1.000  H
  C100     1.0000 0.02535  0.29290  0.69579  Biso   1.000  C
  H61      1.0000 0.03465  0.18598  0.65200  Biso   1.000  H
  C101     1.0000 0.42823  0.91628  0.63961  Biso   1.000  C
  C102     1.0000 0.48155  0.82380  0.57590  Biso   1.000  C
  C103     1.0000 0.54123  0.86023  0.65698  Biso   1.000  C
  H62      1.0000 0.53851  0.73733  0.62231  Biso   1.000  H
  H63      1.0000 0.29246  0.81108  0.79471  Biso   1.000  H
  H64      1.0000 0.31136  0.71650  0.80865  Biso   1.000  H
  H65      1.0000 0.23622  0.74628  0.81004  Biso   1.000  H
  C104     1.0000 0.09480  0.65553  0.42079  Biso   1.000  C
  H66      1.0000 0.03509  0.55084  0.43245  Biso   1.000  H
  H67      1.0000 0.00100  0.63603  0.44968  Biso   1.000  H
  O9       1.0000 0.00583  0.71157  0.53617  Biso   1.000  O
  H68      1.0000 0.99758  0.26881  0.72031  Biso   1.000  H
  C105     1.0000 0.44044  0.89500  0.58238  Biso   1.000  C
  H69      1.0000 0.39808  0.96504  0.64436  Biso   1.000  H
  C106     1.0000 0.49792  0.92970  0.66370  Biso   1.000  C
  C107     1.0000 0.49384  0.79619  0.52590  Biso   1.000  C
  C108     1.0000 0.60684  0.86502  0.67691  Biso   1.000  C
  C109     1.0000 0.14434  0.61302  0.39330  Biso   1.000  C
  C110     1.0000 0.09152  0.74462  0.41859  Biso   1.000  C
  C111     1.0000 0.93294  0.70780  0.53898  Biso   1.000  C
  C112     1.0000 0.41544  0.94178  0.54080  Biso   1.000  C
  C113     1.0000 0.51973  0.00409  0.68919  Biso   1.000  C
  C114     1.0000 0.46955  0.84342  0.48280  Biso   1.000  C
  Br10     1.0000 0.54036  0.69151  0.51528  Biso   1.000  Br
  C115     1.0000 0.62775  0.93833  0.70239  Biso   1.000  C
  H70      1.0000 0.63612  0.81926  0.67316  Biso   1.000  H
  O10      1.0000 0.14880  0.52457  0.39477  Biso   1.000  O
  C116     1.0000 0.19251  0.66000  0.36500  Biso   1.000  C
  C117     1.0000 0.13524  0.79038  0.38890  Biso   1.000  C
  H71      1.0000 0.05933  0.77338  0.43751  Biso   1.000  H
  H72      1.0000 0.91533  0.67374  0.51099  Biso   1.000  H
  H73      1.0000 0.91480  0.76456  0.53651  Biso   1.000  H
  H74      1.0000 0.92058  0.68269  0.57123  Biso   1.000  H
  C118     1.0000 0.43163  0.91743  0.48999  Biso   1.000  C
  H75      1.0000 0.38806  0.98901  0.54628  Biso   1.000  H
  H76      1.0000 0.49081  0.05023  0.69324  Biso   1.000  H
  C119     1.0000 0.58583  0.00741  0.70849  Biso   1.000  C
  O11      1.0000 0.47950  0.81249  0.43338  Biso   1.000  O
  H77      1.0000 0.67139  0.94101  0.71583  Biso   1.000  H
  C120     1.0000 0.11650  0.48393  0.35048  Biso   1.000  C
  Br11     1.0000 0.26108  0.60050  0.32955  Biso   1.000  Br
  C121     1.0000 0.18803  0.74832  0.36280  Biso   1.000  C
  C122     1.0000 0.13480  0.88650  0.37990  Biso   1.000  C
  C123     1.0000 0.40982  0.97182  0.44400  Biso   1.000  C
  H78      1.0000 0.60149  0.05618  0.72536  Biso   1.000  H
  C124     1.0000 0.54355  0.83447  0.41319  Biso   1.000  C
  H79      1.0000 0.13561  0.50559  0.31936  Biso   1.000  H
  H80      1.0000 0.06929  0.49607  0.35044  Biso   1.000  H
  H81      1.0000 0.12338  0.42328  0.35237  Biso   1.000  H
  C125     1.0000 0.23340  0.81153  0.33311  Biso   1.000  C
  C126     1.0000 0.20304  0.92050  0.39701  Biso   1.000  C
  H82      1.0000 0.09774  0.91526  0.39720  Biso   1.000  H
  C127     1.0000 0.13112  0.89679  0.32040  Biso   1.000  C
  C128     1.0000 0.33780  0.95692  0.42659  Biso   1.000  C
  H83      1.0000 0.43910  0.95980  0.41547  Biso   1.000  H
  H84      1.0000 0.41534  0.03157  0.45307  Biso   1.000  H
  H85      1.0000 0.54824  0.80897  0.37979  Biso   1.000  H
  H86      1.0000 0.57850  0.81389  0.43605  Biso   1.000  H
  H87      1.0000 0.54694  0.89551  0.41021  Biso   1.000  H
  C129     1.0000 0.25662  0.87768  0.37388  Biso   1.000  C
  H88      1.0000 0.27076  0.78335  0.31577  Biso   1.000  H
  C130     1.0000 0.18481  0.85838  0.29561  Biso   1.000  C
  C131     1.0000 0.21685  0.98383  0.43299  Biso   1.000  C
  C132     1.0000 0.08082  0.93967  0.29260  Biso   1.000  C
  C133     1.0000 0.32284  0.89493  0.38840  Biso   1.000  C
  C134     1.0000 0.28461  0.00281  0.44720  Biso   1.000  C
  C135     1.0000 0.18933  0.86189  0.24229  Biso   1.000  C
  Br12     1.0000 0.14643  0.04410  0.46512  Biso   1.000  Br
  C136     1.0000 0.08624  0.94159  0.23882  Biso   1.000  C
  H89      1.0000 0.04520  0.96594  0.30901  Biso   1.000  H
  H90      1.0000 0.35748  0.86528  0.37288  Biso   1.000  H
  O12      1.0000 0.29733  0.06321  0.48578  Biso   1.000  O
  H91      1.0000 0.22479  0.83601  0.22557  Biso   1.000  H
  C137     1.0000 0.13872  0.90567  0.21410  Biso   1.000  C
  H92      1.0000 0.05273  0.96843  0.21928  Biso   1.000  H
  C138     1.0000 0.30363  0.14929  0.46558  Biso   1.000  C
  H93      1.0000 0.14134  0.91001  0.17835  Biso   1.000  H
  H94      1.0000 0.33858  0.15070  0.44064  Biso   1.000  H
  H95      1.0000 0.31455  0.18783  0.49335  Biso   1.000  H
  H96      1.0000 0.26193  0.16623  0.44948  Biso   1.000  H
  C139     1.0000 0.77801  0.74743  0.29260  Biso   1.000  C
  O13      1.0000 0.76901  0.77139  0.23889  Biso   1.000  O
  H97      1.0000 0.79242  0.68889  0.29473  Biso   1.000  H
  H98      1.0000 0.81132  0.78347  0.30866  Biso   1.000  H
  H99      1.0000 0.73623  0.75369  0.31002  Biso   1.000  H
  C140     1.0000 0.82841  0.76040  0.21179  Biso   1.000  C
  C141     1.0000 0.87182  0.82930  0.20518  Biso   1.000  C
  C142     1.0000 0.84281  0.68071  0.19028  Biso   1.000  C
  C143     1.0000 0.85332  0.91768  0.22530  Biso   1.000  C
  C144     1.0000 0.93072  0.81588  0.17800  Biso   1.000  C
  C145     1.0000 0.90191  0.66722  0.16348  Biso   1.000  C
  Br13     1.0000 0.78114  0.58925  0.19974  Biso   1.000  Br
  C146     1.0000 0.80391  0.96568  0.18920  Biso   1.000  C
  H100     1.0000 0.83342  0.91180  0.25897  Biso   1.000  H
  H101     1.0000 0.89396  0.95143  0.22951  Biso   1.000  H
  H102     1.0000 0.96048  0.86100  0.17372  Biso   1.000  H
  C147     1.0000 0.94549  0.73733  0.15750  Biso   1.000  C
  C148     1.0000 0.92820  0.58369  0.13958  Biso   1.000  C
  C149     1.0000 0.73452  0.95712  0.19561  Biso   1.000  C
  C150     1.0000 0.82902  0.01802  0.14920  Biso   1.000  C
  C151     1.0000 0.00822  0.71413  0.12711  Biso   1.000  C
  H103     1.0000 0.89804  0.53493  0.14437  Biso   1.000  H
  C152     1.0000 0.94040  0.60497  0.08240  Biso   1.000  C
  C153     1.0000 0.99793  0.57027  0.16371  Biso   1.000  C
  C154     1.0000 0.68990  0.99840  0.16209  Biso   1.000  C
  H104     1.0000 0.71841  0.92369  0.22237  Biso   1.000  H
  C155     1.0000 0.78164  0.06353  0.11769  Biso   1.000  C
  O14      1.0000 0.89711  0.02697  0.14313  Biso   1.000  O
  C156     1.0000 0.98151  0.67623  0.07591  Biso   1.000  C
  H105     1.0000 0.03847  0.76264  0.12232  Biso   1.000  H
  C157     1.0000 0.04120  0.63980  0.15700  Biso   1.000  C
  C158     1.0000 0.91540  0.55819  0.04081  Biso   1.000  C
  C159     1.0000 0.01970  0.49588  0.18920  Biso   1.000  C
  C160     1.0000 0.61310  0.99380  0.16341  Biso   1.000  C
  C161     1.0000 0.71372  0.05113  0.12279  Biso   1.000  C
  Br14     1.0000 0.81510  0.14917  0.07251  Biso   1.000  Br
  C162     1.0000 0.92213  0.98830  0.09599  Biso   1.000  C
  C163     1.0000 0.99380  0.70378  0.02591  Biso   1.000  C
  C164     1.0000 0.10680  0.63501  0.17688  Biso   1.000  C
  C165     1.0000 0.93164  0.58260  0.98996  Biso   1.000  C
  H106     1.0000 0.88808  0.51096  0.04630  Biso   1.000  H
  H107     1.0000 0.99083  0.44980  0.19325  Biso   1.000  H
  C166     1.0000 0.08584  0.49262  0.20850  Biso   1.000  C
  C167     1.0000 0.59090  0.95897  0.10989  Biso   1.000  C
  H108     1.0000 0.59673  0.95923  0.19206  Biso   1.000  H
  C168     1.0000 0.58722  0.08641  0.16441  Biso   1.000  C
  C169     1.0000 0.65622  0.08679  0.08831  Biso   1.000  C
  H109     1.0000 0.97030  0.99080  0.09634  Biso   1.000  H
  H110     1.0000 0.90787  0.92976  0.09414  Biso   1.000  H
  H111     1.0000 0.90463  0.01892  0.06657  Biso   1.000  H
  C170     1.0000 0.96957  0.65661  0.98278  Biso   1.000  C
  Br15     1.0000 0.04033  0.80846  0.01529  Biso   1.000  Br
  C171     1.0000 0.12771  0.56171  0.20240  Biso   1.000  C
  H112     1.0000 0.13608  0.68077  0.17317  Biso   1.000  H
  C172     1.0000 0.90984  0.52822  0.94397  Biso   1.000  C
  H113     1.0000 0.10145  0.44386  0.22538  Biso   1.000  H
  C173     1.0000 0.55420  0.88598  0.09881  Biso   1.000  C
  C174     1.0000 0.61569  0.00837  0.06919  Biso   1.000  C
  C175     1.0000 0.61051  0.13741  0.12398  Biso   1.000  C
  C176     1.0000 0.54392  0.12092  0.20020  Biso   1.000  C
  H114     1.0000 0.67274  0.12156  0.05977  Biso   1.000  H
  O15      1.0000 0.97956  0.68748  0.93336  Biso   1.000  O
  H115     1.0000 0.17135  0.55902  0.21580  Biso   1.000  H
  C177     1.0000 0.83787  0.54311  0.92656  Biso   1.000  C
  H116     1.0000 0.91535  0.46840  0.95305  Biso   1.000  H
  H117     1.0000 0.93912  0.54023  0.91544  Biso   1.000  H
  C178     1.0000 0.53963  0.86342  0.04711  Biso   1.000  C
  Br16     1.0000 0.52499  0.81370  0.15298  Biso   1.000  Br
  C179     1.0000 0.60159  0.98677  0.01819  Biso   1.000  C
  C180     1.0000 0.59069  0.22132  0.11900  Biso   1.000  C
  H118     1.0000 0.52739  0.08736  0.22669  Biso   1.000  H
  C181     1.0000 0.52532  0.20707  0.19580  Biso   1.000  C
  C182     1.0000 0.04351  0.66549  0.91316  Biso   1.000  C
  C183     1.0000 0.78468  0.49722  0.94718  Biso   1.000  C
  C184     1.0000 0.82285  0.60510  0.88837  Biso   1.000  C
  O16      1.0000 0.50580  0.78839  0.03618  Biso   1.000  O
  C185     1.0000 0.56253  0.91500  0.00691  Biso   1.000  C
  H119     1.0000 0.61817  0.02013  0.99158  Biso   1.000  H
  C186     1.0000 0.54790  0.25717  0.15510  Biso   1.000  C
  H120     1.0000 0.60584  0.25411  0.09163  Biso   1.000  H
  H121     1.0000 0.49754  0.23116  0.22032  Biso   1.000  H
  H122     1.0000 0.04826  0.69100  0.87976  Biso   1.000  H
  H123     1.0000 0.07846  0.68614  0.93602  Biso   1.000  H
  H124     1.0000 0.04695  0.60446  0.91019  Biso   1.000  H
  C187     1.0000 0.71686  0.51620  0.93297  Biso   1.000  C
  O17      1.0000 0.79734  0.43682  0.98575  Biso   1.000  O
  C188     1.0000 0.75663  0.62229  0.87385  Biso   1.000  C
  H125     1.0000 0.85750  0.63469  0.87285  Biso   1.000  H
  C189     1.0000 0.43291  0.79223  0.03900  Biso   1.000  C
  C190     1.0000 0.54296  0.89551  0.95027  Biso   1.000  C
  H126     1.0000 0.53461  0.31399  0.15202  Biso   1.000  H
  C191     1.0000 0.70306  0.57947  0.89694  Biso   1.000  C
  Br17     1.0000 0.64645  0.45593  0.96509  Biso   1.000  Br
  C192     1.0000 0.80364  0.35067  0.96556  Biso   1.000  C
  C193     1.0000 0.73346  0.68850  0.83308  Biso   1.000  C
  H127     1.0000 0.41535  0.82629  0.01100  Biso   1.000  H
  H128     1.0000 0.41476  0.73541  0.03653  Biso   1.000  H
  H129     1.0000 0.42055  0.81735  0.07124  Biso   1.000  H
  C194     1.0000 0.59486  0.84451  0.92077  Biso   1.000  C
  H130     1.0000 0.53511  0.94919  0.93243  Biso   1.000  H
  H131     1.0000 0.50101  0.86400  0.94965  Biso   1.000  H
  C195     1.0000 0.63486  0.61347  0.87988  Biso   1.000  C
  H132     1.0000 0.83864  0.34933  0.94061  Biso   1.000  H
  H133     1.0000 0.81462  0.31220  0.99332  Biso   1.000  H
  H134     1.0000 0.76194  0.33374  0.94946  Biso   1.000  H
  C196     1.0000 0.68804  0.75171  0.86277  Biso   1.000  C
  C197     1.0000 0.68487  0.64159  0.79555  Biso   1.000  C
  H135     1.0000 0.77082  0.71662  0.81574  Biso   1.000  H
  C198     1.0000 0.59154  0.75542  0.91857  Biso   1.000  C
  C199     1.0000 0.64435  0.88701  0.89328  Biso   1.000  C
  C200     1.0000 0.63525  0.70959  0.88887  Biso   1.000  C
  H136     1.0000 0.59775  0.58471  0.89718  Biso   1.000  H
  C201     1.0000 0.63114  0.60318  0.82038  Biso   1.000  C
  C202     1.0000 0.69257  0.83997  0.86497  Biso   1.000  C
  C203     1.0000 0.68934  0.63808  0.74226  Biso   1.000  C
  H137     1.0000 0.55939  0.72666  0.93745  Biso   1.000  H
  O18      1.0000 0.64886  0.97539  0.89474  Biso   1.000  O
  C204     1.0000 0.58084  0.56030  0.79258  Biso   1.000  C
  Br18     1.0000 0.76109  0.89947  0.82953  Biso   1.000  Br
  H138     1.0000 0.72486  0.66403  0.72555  Biso   1.000  H
  C205     1.0000 0.63873  0.59430  0.71408  Biso   1.000  C
  C206     1.0000 0.61656  0.01611  0.85046  Biso   1.000  C
  C207     1.0000 0.58625  0.55838  0.73875  Biso   1.000  C
  H139     1.0000 0.54521  0.53403  0.80899  Biso   1.000  H
  H140     1.0000 0.64136  0.58995  0.67832  Biso   1.000  H
  H141     1.0000 0.63563  0.99444  0.81930  Biso   1.000  H
  H142     1.0000 0.56930  0.00396  0.85042  Biso   1.000  H
  H143     1.0000 0.62339  0.07676  0.85235  Biso   1.000  H
  H144     1.0000 0.55274  0.53154  0.71925  Biso   1.000  H
  C208     1.0000 0.22201  0.25257  0.70737  Biso   1.000  C
  O19      1.0000 0.23106  0.22861  0.76108  Biso   1.000  O
  H145     1.0000 0.20760  0.31111  0.70529  Biso   1.000  H
  H146     1.0000 0.18875  0.21653  0.69135  Biso   1.000  H
  H147     1.0000 0.26384  0.24631  0.68996  Biso   1.000  H
  C209     1.0000 0.17161  0.23960  0.78819  Biso   1.000  C
  C210     1.0000 0.12825  0.17070  0.79479  Biso   1.000  C
  C211     1.0000 0.15721  0.31929  0.80969  Biso   1.000  C
  C212     1.0000 0.14675  0.08232  0.77467  Biso   1.000  C
  C213     1.0000 0.06935  0.18412  0.82197  Biso   1.000  C
  Br19     1.0000 0.21893  0.41075  0.80023  Biso   1.000  Br
  C214     1.0000 0.09816  0.33278  0.83649  Biso   1.000  C
  C215     1.0000 0.19616  0.03432  0.81077  Biso   1.000  C
  H148     1.0000 0.16661  0.08820  0.74104  Biso   1.000  H
  H149     1.0000 0.10611  0.04857  0.77046  Biso   1.000  H
  H150     1.0000 0.03959  0.13900  0.82626  Biso   1.000  H
  C216     1.0000 0.05453  0.26267  0.84248  Biso   1.000  C
  C217     1.0000 0.07182  0.41631  0.86039  Biso   1.000  C
  C218     1.0000 0.26555  0.04288  0.80440  Biso   1.000  C
  C219     1.0000 0.17105  0.98198  0.85078  Biso   1.000  C
  C220     1.0000 0.99185  0.28587  0.87290  Biso   1.000  C
  H151     1.0000 0.10203  0.46507  0.85560  Biso   1.000  H
  C221     1.0000 0.05962  0.39503  0.91758  Biso   1.000  C
  C222     1.0000 0.00214  0.42973  0.83630  Biso   1.000  C
  C223     1.0000 0.31012  0.00160  0.83788  Biso   1.000  C
  H152     1.0000 0.28166  0.07631  0.77761  Biso   1.000  H
  O20      1.0000 0.10296  0.97303  0.85684  Biso   1.000  O
  C224     1.0000 0.21843  0.93647  0.88228  Biso   1.000  C
  C225     1.0000 0.01856  0.32377  0.92410  Biso   1.000  C
  H153     1.0000 0.96155  0.23736  0.87769  Biso   1.000  H
  C226     1.0000 0.95882  0.36020  0.84298  Biso   1.000  C
  C227     1.0000 0.08467  0.44181  0.95920  Biso   1.000  C
  C228     1.0000 0.98032  0.50412  0.81077  Biso   1.000  C
  C229     1.0000 0.38692  0.00620  0.83661  Biso   1.000  C
  C230     1.0000 0.28635  0.94887  0.87719  Biso   1.000  C
  C231     1.0000 0.07794  0.01170  0.90398  Biso   1.000  C
  Br20     1.0000 0.18497  0.85083  0.92746  Biso   1.000  Br
  C232     1.0000 0.00627  0.29622  0.97410  Biso   1.000  C
  C233     1.0000 0.89322  0.36499  0.82309  Biso   1.000  C
  H154     1.0000 0.11199  0.48904  0.95372  Biso   1.000  H
  C234     1.0000 0.06838  0.41740  0.01001  Biso   1.000  C
  H155     1.0000 0.00924  0.55020  0.80672  Biso   1.000  H
  C235     1.0000 0.91423  0.50738  0.79151  Biso   1.000  C
  C236     1.0000 0.40917  0.04103  0.89008  Biso   1.000  C
  H156     1.0000 0.40334  0.04077  0.80792  Biso   1.000  H
  C237     1.0000 0.41286  0.91359  0.83560  Biso   1.000  C
  C238     1.0000 0.34385  0.91321  0.91167  Biso   1.000  C
  H157     1.0000 0.02977  0.00920  0.90364  Biso   1.000  H
  H158     1.0000 0.09220  0.07024  0.90588  Biso   1.000  H
  H159     1.0000 0.09544  0.98108  0.93341  Biso   1.000  H
  Br21     1.0000 0.95974  0.19154  0.98468  Biso   1.000  Br
  C239     1.0000 0.03051  0.34339  0.01723  Biso   1.000  C
  C240     1.0000 0.87236  0.43829  0.79757  Biso   1.000  C
  H160     1.0000 0.86394  0.31923  0.82680  Biso   1.000  H
  C241     1.0000 0.09018  0.47178  0.05604  Biso   1.000  C
  H161     1.0000 0.89857  0.55614  0.77460  Biso   1.000  H
  C242     1.0000 0.44587  0.11402  0.90120  Biso   1.000  C
  C243     1.0000 0.38433  0.99163  0.93078  Biso   1.000  C
  C244     1.0000 0.38956  0.86259  0.87599  Biso   1.000  C
  C245     1.0000 0.45615  0.87908  0.79977  Biso   1.000  C
  H162     1.0000 0.32733  0.87844  0.94024  Biso   1.000  H
  O21      1.0000 0.02051  0.31252  0.06662  Biso   1.000  O
  H163     1.0000 0.82872  0.44098  0.78417  Biso   1.000  H
  H164     1.0000 0.08472  0.53160  0.04696  Biso   1.000  H
  H165     1.0000 0.06090  0.45977  0.08457  Biso   1.000  H
  C246     1.0000 0.16220  0.45689  0.07341  Biso   1.000  C
  Br22     1.0000 0.47503  0.18630  0.84703  Biso   1.000  Br
  C247     1.0000 0.46044  0.13658  0.95287  Biso   1.000  C
  C248     1.0000 0.39843  0.01323  0.98179  Biso   1.000  C
  C249     1.0000 0.40933  0.77868  0.88097  Biso   1.000  C
  H166     1.0000 0.47263  0.91264  0.77328  Biso   1.000  H
  C250     1.0000 0.47475  0.79293  0.80417  Biso   1.000  C
  C251     1.0000 0.95656  0.33451  0.08681  Biso   1.000  C
  C252     1.0000 0.21539  0.50278  0.05283  Biso   1.000  C
  C253     1.0000 0.17722  0.39490  0.11164  Biso   1.000  C
  O22      1.0000 0.49427  0.21161  0.96383  Biso   1.000  O
  C254     1.0000 0.43754  0.08500  0.99310  Biso   1.000  C
  H167     1.0000 0.38190  0.97987  0.00843  Biso   1.000  H
  C255     1.0000 0.45212  0.74283  0.84487  Biso   1.000  C
  H168     1.0000 0.39423  0.74589  0.90835  Biso   1.000  H
  H169     1.0000 0.50253  0.76884  0.77965  Biso   1.000  H
  H170     1.0000 0.95181  0.30900  0.12025  Biso   1.000  H
  H171     1.0000 0.92161  0.31386  0.06395  Biso   1.000  H
  H172     1.0000 0.95312  0.39554  0.08978  Biso   1.000  H
  O23      1.0000 0.20268  0.56318  0.01422  Biso   1.000  O
  C256     1.0000 0.28321  0.48380  0.06700  Biso   1.000  C
  C257     1.0000 0.24339  0.37771  0.12612  Biso   1.000  C
  H173     1.0000 0.14252  0.36531  0.12716  Biso   1.000  H
  C258     1.0000 0.56716  0.20777  0.96098  Biso   1.000  C
  C259     1.0000 0.45711  0.10449  0.04971  Biso   1.000  C
  H174     1.0000 0.46541  0.68601  0.84800  Biso   1.000  H
  C260     1.0000 0.19638  0.64933  0.03442  Biso   1.000  C
  Br23     1.0000 0.35357  0.54407  0.03488  Biso   1.000  Br
  C261     1.0000 0.29701  0.42053  0.10303  Biso   1.000  C
  C262     1.0000 0.26661  0.31150  0.16693  Biso   1.000  C
  H175     1.0000 0.58473  0.17371  0.98901  Biso   1.000  H
  H176     1.0000 0.58526  0.26459  0.96345  Biso   1.000  H
  H177     1.0000 0.57952  0.18265  0.92877  Biso   1.000  H
  C263     1.0000 0.40521  0.15549  0.07921  Biso   1.000  C
  H178     1.0000 0.46496  0.05081  0.06754  Biso   1.000  H
  H179     1.0000 0.49906  0.13600  0.05032  Biso   1.000  H
  H180     1.0000 0.16143  0.65067  0.05936  Biso   1.000  H
  H181     1.0000 0.18545  0.68780  0.00665  Biso   1.000  H
  H182     1.0000 0.23813  0.66626  0.05056  Biso   1.000  H
  C264     1.0000 0.36521  0.38653  0.12013  Biso   1.000  C
  C265     1.0000 0.31203  0.24829  0.13724  Biso   1.000  C
  H183     1.0000 0.22925  0.28338  0.18423  Biso   1.000  H
  C266     1.0000 0.31520  0.35841  0.20442  Biso   1.000  C
  C267     1.0000 0.40848  0.24458  0.08141  Biso   1.000  C
  C268     1.0000 0.35572  0.11299  0.10674  Biso   1.000  C
  H184     1.0000 0.40227  0.41529  0.10284  Biso   1.000  H
  C269     1.0000 0.36482  0.29041  0.11114  Biso   1.000  C
  C270     1.0000 0.36889  0.39682  0.17963  Biso   1.000  C
  C271     1.0000 0.30750  0.16003  0.13504  Biso   1.000  C
  C272     1.0000 0.31073  0.36192  0.25771  Biso   1.000  C
  H185     1.0000 0.44068  0.27334  0.06252  Biso   1.000  H
  O24      1.0000 0.35121  0.02461  0.10527  Biso   1.000  O
  C273     1.0000 0.41923  0.43970  0.20744  Biso   1.000  C
  Br24     1.0000 0.23898  0.10053  0.17045  Biso   1.000  Br
  H186     1.0000 0.27521  0.33597  0.27447  Biso   1.000  H
  C274     1.0000 0.36129  0.40570  0.28593  Biso   1.000  C
  C275     1.0000 0.38351  0.98389  0.14952  Biso   1.000  C
  C276     1.0000 0.41382  0.44162  0.26122  Biso   1.000  C
  H187     1.0000 0.45486  0.46597  0.19103  Biso   1.000  H
  H188     1.0000 0.35866  0.41005  0.32165  Biso   1.000  H
  H189     1.0000 0.43072  0.99604  0.14959  Biso   1.000  H
  H190     1.0000 0.37663  0.92324  0.14766  Biso   1.000  H
  H191     1.0000 0.36439  0.00556  0.18068  Biso   1.000  H
  H192     1.0000 0.44733  0.46846  0.28072  Biso   1.000  H
  Ne1      1.0000 0.73762  0.28075  0.46212  Biso   1.000  Ne
  He1      1.0000 0.64594  0.38270  0.53065  Biso   1.000  He
  He2      1.0000 0.85229  0.14049  0.42065  Biso   1.000  He
  Ar1      1.0000 0.73585  0.28311  0.46426  Biso   1.000  Ar
  Ne2      1.0000 0.26243  0.71925  0.53786  Biso   1.000  Ne
  He3      1.0000 0.12724  0.88987  0.59236  Biso   1.000  He
  He4      1.0000 0.39008  0.55508  0.44857  Biso   1.000  He
  Ar2      1.0000 0.26226  0.71818  0.53676  Biso   1.000  Ar
  Ne3      1.0000 0.76243  0.78074  0.03786  Biso   1.000  Ne
  He5      1.0000 0.62457  0.60609  0.09409  Biso   1.000  He
  He6      1.0000 0.85460  0.88361  0.96904  Biso   1.000  He
  Ar3      1.0000 0.76676  0.77991  0.03379  Biso   1.000  Ar
  Ne4      1.0000 0.23762  0.21926  0.96213  Biso   1.000  Ne
  He7      1.0000 0.11054  0.05592  0.05108  Biso   1.000  He
  He8      1.0000 0.37514  0.39343  0.90611  Biso   1.000  He
  Ar4      1.0000 0.23611  0.21694  0.96402  Biso   1.000  Ar
