data_image0
_cell_length_a       25.629
_cell_length_b       25.629
_cell_length_c       11.185
_cell_angle_alpha    90
_cell_angle_beta     90
_cell_angle_gamma    120

_symmetry_space_group_name_H-M    "P 1"
_symmetry_int_tables_number       1

loop_
  _symmetry_equiv_pos_as_xyz
  'x, y, z'

loop_
  _atom_site_label
  _atom_site_occupancy
  _atom_site_fract_x
  _atom_site_fract_y
  _atom_site_fract_z
  _atom_site_thermal_displace_type
  _atom_site_B_iso_or_equiv
  _atom_site_type_symbol
  C1       1.0000 0.81065  0.93614  0.53196  Biso   1.000  C
  C2       1.0000 0.81063  0.93619  0.53196  Biso   1.000  C
  H1       1.0000 0.80504  0.85446  0.50380  Biso   1.000  H
  C3       1.0000 0.83106  0.87964  0.67564  Biso   1.000  C
  C4       1.0000 0.83104  0.87969  0.67564  Biso   1.000  C
  C5       1.0000 0.78615  0.94029  0.41144  Biso   1.000  C
  C6       1.0000 0.78609  0.94024  0.41144  Biso   1.000  C
  C7       1.0000 0.82744  0.98196  0.61332  Biso   1.000  C
  C8       1.0000 0.81413  0.88496  0.56156  Biso   1.000  C
  C9       1.0000 0.84813  0.92596  0.75771  Biso   1.000  C
  C10      1.0000 0.82845  0.82143  0.71113  Biso   1.000  C
  C11      1.0000 0.82843  0.82148  0.71113  Biso   1.000  C
  N1       1.0000 0.76990  0.90185  0.33420  Biso   1.000  N
  H2       1.0000 0.78321  0.97507  0.39508  Biso   1.000  H
  C12      1.0000 0.84625  0.97714  0.72767  Biso   1.000  C
  C13      1.0000 0.84623  0.97719  0.72767  Biso   1.000  C
  H3       1.0000 0.82630  0.01715  0.59142  Biso   1.000  H
  H4       1.0000 0.86136  0.92244  0.83514  Biso   1.000  H
  H5       1.0000 0.86132  0.92244  0.83514  Biso   1.000  H
  N2       1.0000 0.83394  0.81206  0.82003  Biso   1.000  N
  H6       1.0000 0.82263  0.79224  0.65239  Biso   1.000  H
  H7       1.0000 0.82265  0.79228  0.65239  Biso   1.000  H
  C14      1.0000 0.74325  0.91114  0.22611  Biso   1.000  C
  C15      1.0000 0.74323  0.91118  0.22611  Biso   1.000  C
  C16      1.0000 0.86389  0.02607  0.81663  Biso   1.000  C
  C17      1.0000 0.82625  0.75313  0.85042  Biso   1.000  C
  C18      1.0000 0.82621  0.75313  0.85042  Biso   1.000  C
  C19      1.0000 0.67536  0.86955  0.22682  Biso   1.000  C
  C20      1.0000 0.67532  0.86955  0.22682  Biso   1.000  C
  C21      1.0000 0.77162  0.90397  0.11310  Biso   1.000  C
  H8       1.0000 0.75114  0.95353  0.22789  Biso   1.000  H
  H9       1.0000 0.75113  0.95358  0.22789  Biso   1.000  H
  N3       1.0000 0.85535  0.06955  0.80125  Biso   1.000  N
  H10      1.0000 0.88261  0.02427  0.88851  Biso   1.000  H
  N4       1.0000 0.85527  0.06955  0.80125  Biso   1.000  N
  C22      1.0000 0.77874  0.72475  0.94385  Biso   1.000  C
  C23      1.0000 0.88702  0.76214  0.89531  Biso   1.000  C
  H11      1.0000 0.81356  0.72704  0.77765  Biso   1.000  H
  C24      1.0000 0.88704  0.76219  0.89531  Biso   1.000  C
  H12      1.0000 0.81354  0.72709  0.77765  Biso   1.000  H
  C25      1.0000 0.88698  0.76214  0.89531  Biso   1.000  C
  C26      1.0000 0.64572  0.87964  0.11846  Biso   1.000  C
  H13      1.0000 0.65833  0.87653  0.30058  Biso   1.000  H
  H14      1.0000 0.66626  0.82715  0.22763  Biso   1.000  H
  H15      1.0000 0.65835  0.87658  0.30058  Biso   1.000  H
  H16      1.0000 0.66622  0.82715  0.22763  Biso   1.000  H
  C27      1.0000 0.74173  0.91434  0.00376  Biso   1.000  C
  C28      1.0000 0.74175  0.91438  0.00376  Biso   1.000  C
  N5       1.0000 0.83555  0.94605  0.10845  Biso   1.000  N
  H17      1.0000 0.76485  0.86194  0.10988  Biso   1.000  H
  H18      1.0000 0.76483  0.86198  0.10988  Biso   1.000  H
  C29      1.0000 0.87511  0.11298  0.89531  Biso   1.000  C
  C30      1.0000 0.76824  0.66356  0.98543  Biso   1.000  C
  H19      1.0000 0.74054  0.71983  0.91185  Biso   1.000  H
  H20      1.0000 0.74052  0.71988  0.91185  Biso   1.000  H
  H21      1.0000 0.79032  0.75205  0.01359  Biso   1.000  H
  H22      1.0000 0.90144  0.79066  0.96451  Biso   1.000  H
  N6       1.0000 0.93039  0.78575  0.80125  Biso   1.000  N
  C31      1.0000 0.87789  0.69925  0.93581  Biso   1.000  C
  C32      1.0000 0.67304  0.87216  0.00367  Biso   1.000  C
  H23      1.0000 0.60194  0.85045  0.11962  Biso   1.000  H
  H24      1.0000 0.65132  0.92073  0.12168  Biso   1.000  H
  H25      1.0000 0.65134  0.92078  0.12168  Biso   1.000  H
  H26      1.0000 0.75895  0.90758  0.93000  Biso   1.000  H
  H27      1.0000 0.75082  0.95664  0.00349  Biso   1.000  H
  H28      1.0000 0.75085  0.95669  0.00349  Biso   1.000  H
  H29      1.0000 0.75079  0.95664  0.00349  Biso   1.000  H
  C33      1.0000 0.87135  0.92573  0.09656  Biso   1.000  C
  C34      1.0000 0.87133  0.92578  0.09656  Biso   1.000  C
  H30      1.0000 0.88925  0.09856  0.96451  Biso   1.000  H
  C35      1.0000 0.92696  0.17376  0.85042  Biso   1.000  C
  C36      1.0000 0.82131  0.12204  0.93581  Biso   1.000  C
  C37      1.0000 0.92688  0.17376  0.85042  Biso   1.000  C
  C38      1.0000 0.82129  0.12208  0.93581  Biso   1.000  C
  H31      1.0000 0.75205  0.63423  0.91873  Biso   1.000  H
  H32      1.0000 0.75204  0.63428  0.91873  Biso   1.000  H
  H33      1.0000 0.73865  0.64824  0.05168  Biso   1.000  H
  C39      1.0000 0.82835  0.67118  0.02772  Biso   1.000  C
  H34      1.0000 0.73861  0.64824  0.05168  Biso   1.000  H
  C40      1.0000 0.97395  0.83783  0.81663  Biso   1.000  C
  C41      1.0000 0.97394  0.83788  0.81663  Biso   1.000  C
  H35      1.0000 0.86744  0.67226  0.86571  Biso   1.000  H
  H36      1.0000 0.91595  0.70474  0.97032  Biso   1.000  H
  H37      1.0000 0.91593  0.70479  0.97032  Biso   1.000  H
  H38      1.0000 0.86740  0.67226  0.86571  Biso   1.000  H
  H39      1.0000 0.65513  0.88154  0.93420  Biso   1.000  H
  H40      1.0000 0.65516  0.88158  0.93420  Biso   1.000  H
  H41      1.0000 0.66359  0.82986  0.99616  Biso   1.000  H
  C42      1.0000 0.93612  0.96367  0.09227  Biso   1.000  C
  H42      1.0000 0.85460  0.88334  0.08994  Biso   1.000  H
  N7       1.0000 0.97817  0.16605  0.82003  Biso   1.000  N
  H43      1.0000 0.91353  0.18646  0.77765  Biso   1.000  H
  C43      1.0000 0.94599  0.22125  0.94385  Biso   1.000  C
  N8       1.0000 0.97813  0.16605  0.82003  Biso   1.000  N
  H44      1.0000 0.80482  0.13253  0.86571  Biso   1.000  H
  H45      1.0000 0.78882  0.08406  0.97032  Biso   1.000  H
  H46      1.0000 0.80485  0.13258  0.86571  Biso   1.000  H
  H47      1.0000 0.78878  0.08406  0.97032  Biso   1.000  H
  C44      1.0000 0.84283  0.17164  0.02772  Biso   1.000  C
  C45      1.0000 0.84286  0.17169  0.02772  Biso   1.000  C
  H48      1.0000 0.84126  0.69668  0.10058  Biso   1.000  H
  H49      1.0000 0.82231  0.63117  0.04998  Biso   1.000  H
  H50      1.0000 0.97573  0.85833  0.88851  Biso   1.000  H
  H51      1.0000 0.97576  0.85838  0.88851  Biso   1.000  H
  C46      1.0000 0.02285  0.86906  0.72767  Biso   1.000  C
  C47      1.0000 0.97261  0.93754  0.09245  Biso   1.000  C
  C48      1.0000 0.96495  0.02733  0.09245  Biso   1.000  C
  C49      1.0000 0.96493  0.02738  0.09245  Biso   1.000  C
  C50      1.0000 0.99305  0.17155  0.71113  Biso   1.000  C
  C51      1.0000 0.99301  0.17155  0.71113  Biso   1.000  C
  H52      1.0000 0.97933  0.25945  0.91185  Biso   1.000  H
  C52      1.0000 0.89532  0.23174  0.98543  Biso   1.000  C
  C53      1.0000 0.89534  0.23179  0.98543  Biso   1.000  C
  H53      1.0000 0.96169  0.20967  0.01359  Biso   1.000  H
  H54      1.0000 0.85539  0.15876  0.10058  Biso   1.000  H
  H55      1.0000 0.80882  0.17768  0.04998  Biso   1.000  H
  C54      1.0000 0.01803  0.84545  0.61332  Biso   1.000  C
  C55      1.0000 0.07404  0.92213  0.75771  Biso   1.000  C
  C56      1.0000 0.07403  0.92217  0.75771  Biso   1.000  C
  H56      1.0000 0.95413  0.89487  0.09262  Biso   1.000  H
  C57      1.0000 0.03635  0.97246  0.09227  Biso   1.000  C
  H57      1.0000 0.94069  0.04585  0.09262  Biso   1.000  H
  C58      1.0000 0.02751  0.06387  0.09227  Biso   1.000  C
  H58      1.0000 0.96966  0.17736  0.65239  Biso   1.000  H
  H59      1.0000 0.96958  0.17736  0.65239  Biso   1.000  H
  C59      1.0000 0.04863  0.16894  0.67564  Biso   1.000  C
  C60      1.0000 0.04865  0.16898  0.67564  Biso   1.000  C
  H60      1.0000 0.90961  0.26134  0.05168  Biso   1.000  H
  H61      1.0000 0.88224  0.24796  0.91873  Biso   1.000  H
  C61      1.0000 0.06383  0.87446  0.53196  Biso   1.000  C
  H62      1.0000 0.98282  0.80913  0.59142  Biso   1.000  H
  H63      1.0000 0.98284  0.80918  0.59142  Biso   1.000  H
  C62      1.0000 0.12035  0.95137  0.67564  Biso   1.000  C
  H64      1.0000 0.07752  0.93884  0.83514  Biso   1.000  H
  C63      1.0000 0.07425  0.94556  0.09656  Biso   1.000  C
  C64      1.0000 0.06245  0.03504  0.09245  Biso   1.000  C
  C65      1.0000 0.06239  0.03508  0.09245  Biso   1.000  C
  C66      1.0000 0.05440  0.12866  0.09656  Biso   1.000  C
  C67      1.0000 0.07081  0.18583  0.56156  Biso   1.000  C
  C68      1.0000 0.07084  0.18588  0.56156  Biso   1.000  C
  C69      1.0000 0.07786  0.15186  0.75771  Biso   1.000  C
  C70      1.0000 0.07782  0.15186  0.75771  Biso   1.000  C
  C71      1.0000 0.05974  0.84585  0.41144  Biso   1.000  C
  C72      1.0000 0.11501  0.92916  0.56156  Biso   1.000  C
  C73      1.0000 0.17850  0.00697  0.71113  Biso   1.000  C
  N9       1.0000 0.05396  0.88946  0.10845  Biso   1.000  N
  H65      1.0000 0.11662  0.97124  0.08994  Biso   1.000  H
  N10      1.0000 0.05393  0.88946  0.10845  Biso   1.000  N
  H66      1.0000 0.11665  0.97128  0.08994  Biso   1.000  H
  H67      1.0000 0.10510  0.05923  0.09262  Biso   1.000  H
  H68      1.0000 0.10508  0.05928  0.09262  Biso   1.000  H
  N11      1.0000 0.11052  0.16443  0.10845  Biso   1.000  N
  H69      1.0000 0.02871  0.14533  0.08994  Biso   1.000  H
  N12      1.0000 0.11055  0.16448  0.10845  Biso   1.000  N
  H70      1.0000 0.02873  0.14537  0.08994  Biso   1.000  H
  C74      1.0000 0.12552  0.18935  0.53196  Biso   1.000  C
  C75      1.0000 0.12548  0.18935  0.53196  Biso   1.000  C
  H71      1.0000 0.04946  0.19493  0.50380  Biso   1.000  H
  H72      1.0000 0.04940  0.19498  0.50380  Biso   1.000  H
  H73      1.0000 0.06112  0.13866  0.83514  Biso   1.000  H
  C76      1.0000 0.13094  0.15375  0.72767  Biso   1.000  C
  N13      1.0000 0.09816  0.86806  0.33420  Biso   1.000  N
  N14      1.0000 0.09812  0.86806  0.33420  Biso   1.000  N
  H74      1.0000 0.02495  0.80819  0.39508  Biso   1.000  H
  H75      1.0000 0.14554  0.95056  0.50380  Biso   1.000  H
  N15      1.0000 0.18792  0.02183  0.82003  Biso   1.000  N
  H76      1.0000 0.20775  0.03035  0.65239  Biso   1.000  H
  N16      1.0000 0.18795  0.02188  0.82003  Biso   1.000  N
  H77      1.0000 0.20767  0.03035  0.65239  Biso   1.000  H
  C77      1.0000 0.09605  0.86766  0.11310  Biso   1.000  C
  C78      1.0000 0.13235  0.22836  0.11310  Biso   1.000  C
  C79      1.0000 0.15412  0.21386  0.41144  Biso   1.000  C
  C80      1.0000 0.15449  0.17254  0.61332  Biso   1.000  C
  C81      1.0000 0.15452  0.17259  0.61332  Biso   1.000  C
  C82      1.0000 0.16212  0.13605  0.81663  Biso   1.000  C
  C83      1.0000 0.08886  0.83207  0.22611  Biso   1.000  C
  C84      1.0000 0.08883  0.83207  0.22611  Biso   1.000  C
  C85      1.0000 0.24682  0.07306  0.85042  Biso   1.000  C
  C86      1.0000 0.24678  0.07306  0.85042  Biso   1.000  C
  H78      1.0000 0.13803  0.90285  0.10988  Biso   1.000  H
  C87      1.0000 0.08564  0.82733  0.00376  Biso   1.000  C
  C88      1.0000 0.08562  0.82738  0.00376  Biso   1.000  C
  H79      1.0000 0.09712  0.23517  0.10988  Biso   1.000  H
  C89      1.0000 0.16796  0.25675  0.22611  Biso   1.000  C
  C90      1.0000 0.17264  0.25824  0.00376  Biso   1.000  C
  C91      1.0000 0.16792  0.25675  0.22611  Biso   1.000  C
  C92      1.0000 0.17259  0.25828  0.00376  Biso   1.000  C
  N17      1.0000 0.13193  0.23003  0.33420  Biso   1.000  N
  N18      1.0000 0.13195  0.23008  0.33420  Biso   1.000  N
  H80      1.0000 0.19185  0.21674  0.39508  Biso   1.000  H
  H81      1.0000 0.19183  0.21679  0.39508  Biso   1.000  H
  H82      1.0000 0.19080  0.17367  0.59142  Biso   1.000  H
  N19      1.0000 0.21422  0.14465  0.80125  Biso   1.000  N
  H83      1.0000 0.14165  0.11735  0.88851  Biso   1.000  H
  H84      1.0000 0.14161  0.11735  0.88851  Biso   1.000  H
  H85      1.0000 0.04644  0.79755  0.22789  Biso   1.000  H
  C93      1.0000 0.13041  0.80575  0.22682  Biso   1.000  C
  C94      1.0000 0.23780  0.12487  0.89531  Biso   1.000  C
  C95      1.0000 0.27523  0.05396  0.94385  Biso   1.000  C
  H86      1.0000 0.27293  0.08649  0.77765  Biso   1.000  H
  H87      1.0000 0.09242  0.85135  0.93000  Biso   1.000  H
  C96      1.0000 0.12784  0.80084  0.00367  Biso   1.000  C
  C97      1.0000 0.12786  0.80089  0.00367  Biso   1.000  C
  H88      1.0000 0.04335  0.79417  0.00349  Biso   1.000  H
  H89      1.0000 0.20241  0.24886  0.22789  Biso   1.000  H
  C98      1.0000 0.19422  0.32465  0.22682  Biso   1.000  C
  H90      1.0000 0.14861  0.24107  0.93000  Biso   1.000  H
  C99      1.0000 0.19915  0.32694  0.00367  Biso   1.000  C
  C100     1.0000 0.19910  0.32699  0.00367  Biso   1.000  C
  H91      1.0000 0.20581  0.24918  0.00349  Biso   1.000  H
  H92      1.0000 0.12346  0.78178  0.30058  Biso   1.000  H
  H93      1.0000 0.17281  0.83905  0.22763  Biso   1.000  H
  C101     1.0000 0.12032  0.76606  0.11846  Biso   1.000  C
  H94      1.0000 0.12340  0.78174  0.30058  Biso   1.000  H
  H95      1.0000 0.20937  0.11077  0.96451  Biso   1.000  H
  C102     1.0000 0.30076  0.17867  0.93581  Biso   1.000  C
  H96      1.0000 0.20929  0.11077  0.96451  Biso   1.000  H
  C103     1.0000 0.30072  0.17867  0.93581  Biso   1.000  C
  H97      1.0000 0.28016  0.02066  0.91185  Biso   1.000  H
  C104     1.0000 0.33643  0.10465  0.98543  Biso   1.000  C
  H98      1.0000 0.28012  0.02066  0.91185  Biso   1.000  H
  H99      1.0000 0.24790  0.03823  0.01359  Biso   1.000  H
  H100     1.0000 0.24788  0.03828  0.01359  Biso   1.000  H
  H101     1.0000 0.11844  0.77354  0.93420  Biso   1.000  H
  H102     1.0000 0.17015  0.83373  0.99616  Biso   1.000  H
  H103     1.0000 0.11842  0.77358  0.93420  Biso   1.000  H
  H104     1.0000 0.17014  0.83378  0.99616  Biso   1.000  H
  H105     1.0000 0.16092  0.33375  0.22763  Biso   1.000  H
  H106     1.0000 0.21824  0.34163  0.30058  Biso   1.000  H
  C105     1.0000 0.23395  0.35425  0.11846  Biso   1.000  C
  H107     1.0000 0.21819  0.34168  0.30058  Biso   1.000  H
  C106     1.0000 0.23391  0.35425  0.11846  Biso   1.000  C
  H108     1.0000 0.22640  0.34483  0.93420  Biso   1.000  H
  H109     1.0000 0.16621  0.33636  0.99616  Biso   1.000  H
  H110     1.0000 0.22638  0.34488  0.93420  Biso   1.000  H
  H111     1.0000 0.14954  0.75146  0.11962  Biso   1.000  H
  H112     1.0000 0.07924  0.73056  0.12168  Biso   1.000  H
  H113     1.0000 0.32773  0.19516  0.86571  Biso   1.000  H
  H114     1.0000 0.29523  0.21115  0.97032  Biso   1.000  H
  H115     1.0000 0.32769  0.19516  0.86571  Biso   1.000  H
  H116     1.0000 0.29519  0.21115  0.97032  Biso   1.000  H
  C107     1.0000 0.32885  0.15713  0.02772  Biso   1.000  C
  C108     1.0000 0.32879  0.15718  0.02772  Biso   1.000  C
  H117     1.0000 0.36570  0.11776  0.91873  Biso   1.000  H
  H118     1.0000 0.35177  0.09036  0.05168  Biso   1.000  H
  H119     1.0000 0.35173  0.09036  0.05168  Biso   1.000  H
  H120     1.0000 0.24855  0.39804  0.11962  Biso   1.000  H
  H121     1.0000 0.26944  0.34866  0.12168  Biso   1.000  H
  H122     1.0000 0.24850  0.39808  0.11962  Biso   1.000  H
  H123     1.0000 0.30333  0.14456  0.10058  Biso   1.000  H
  H124     1.0000 0.36880  0.19115  0.04998  Biso   1.000  H
  H125     1.0000 0.30329  0.14456  0.10058  Biso   1.000  H
  C109     1.0000 0.66976  0.77133  0.65212  Biso   1.000  C
  C110     1.0000 0.60856  0.72065  0.61055  Biso   1.000  C
  C111     1.0000 0.66217  0.82382  0.69441  Biso   1.000  C
  H126     1.0000 0.69906  0.78444  0.58543  Biso   1.000  H
  H127     1.0000 0.68509  0.75705  0.71828  Biso   1.000  H
  C112     1.0000 0.58018  0.73975  0.51712  Biso   1.000  C
  H128     1.0000 0.61349  0.68735  0.57854  Biso   1.000  H
  H129     1.0000 0.58126  0.70492  0.68020  Biso   1.000  H
  C113     1.0000 0.63406  0.84531  0.60250  Biso   1.000  C
  H130     1.0000 0.63669  0.81125  0.76719  Biso   1.000  H
  H131     1.0000 0.70216  0.85784  0.71658  Biso   1.000  H
  N20      1.0000 0.52125  0.68852  0.48672  Biso   1.000  N
  C114     1.0000 0.57115  0.79152  0.56200  Biso   1.000  C
  H132     1.0000 0.60627  0.75313  0.44435  Biso   1.000  H
  H133     1.0000 0.66109  0.86185  0.53241  Biso   1.000  H
  H134     1.0000 0.62859  0.87784  0.63701  Biso   1.000  H
  C115     1.0000 0.51186  0.67365  0.37783  Biso   1.000  C
  N21      1.0000 0.54758  0.81134  0.46795  Biso   1.000  N
  H135     1.0000 0.54267  0.77741  0.63120  Biso   1.000  H
  C116     1.0000 0.45365  0.61801  0.34233  Biso   1.000  C
  H136     1.0000 0.54107  0.69704  0.31900  Biso   1.000  H
  C117     1.0000 0.49548  0.80274  0.48333  Biso   1.000  C
  C118     1.0000 0.40737  0.58882  0.42441  Biso   1.000  C
  C119     1.0000 0.44838  0.59585  0.22825  Biso   1.000  C
  C120     1.0000 0.46426  0.82044  0.39437  Biso   1.000  C
  H137     1.0000 0.47497  0.78404  0.55521  Biso   1.000  H
  C121     1.0000 0.35617  0.53574  0.39437  Biso   1.000  C
  H138     1.0000 0.41085  0.60553  0.50183  Biso   1.000  H
  C122     1.0000 0.39719  0.54115  0.19866  Biso   1.000  C
  H139     1.0000 0.47886  0.61725  0.17041  Biso   1.000  H
  C123     1.0000 0.41119  0.81855  0.42441  Biso   1.000  C
  C124     1.0000 0.48786  0.83923  0.28002  Biso   1.000  C
  C125     1.0000 0.30728  0.50452  0.48333  Biso   1.000  C
  C126     1.0000 0.35135  0.51213  0.28002  Biso   1.000  C
  C127     1.0000 0.39307  0.51254  0.07814  Biso   1.000  C
  C128     1.0000 0.38195  0.83562  0.34233  Biso   1.000  C
  H140     1.0000 0.39448  0.80535  0.50183  Biso   1.000  H
  C129     1.0000 0.45888  0.85603  0.19866  Biso   1.000  C
  H141     1.0000 0.52416  0.84036  0.25811  Biso   1.000  H
  N22      1.0000 0.26375  0.45244  0.46795  Biso   1.000  N
  H142     1.0000 0.30906  0.52502  0.55521  Biso   1.000  H
  H143     1.0000 0.31614  0.47582  0.25811  Biso   1.000  H
  N23      1.0000 0.43149  0.53475  0.00080  Biso   1.000  N
  H144     1.0000 0.35825  0.47483  0.06169  Biso   1.000  H
  C130     1.0000 0.32637  0.83824  0.37783  Biso   1.000  C
  C131     1.0000 0.40418  0.85252  0.22825  Biso   1.000  C
  C132     1.0000 0.48748  0.88054  0.07814  Biso   1.000  C
  C133     1.0000 0.22034  0.42883  0.56200  Biso   1.000  C
  C134     1.0000 0.42219  0.49875  0.89271  Biso   1.000  C
  N24      1.0000 0.31149  0.83274  0.48672  Biso   1.000  N
  H145     1.0000 0.30298  0.84405  0.31900  Biso   1.000  H
  H146     1.0000 0.38278  0.86162  0.17041  Biso   1.000  H
  N25      1.0000 0.46525  0.89672  0.00080  Biso   1.000  N
  H147     1.0000 0.52517  0.88343  0.06169  Biso   1.000  H
  C135     1.0000 0.21125  0.36593  0.60250  Biso   1.000  C
  H148     1.0000 0.23476  0.45735  0.63120  Biso   1.000  H
  C136     1.0000 0.15958  0.41982  0.51712  Biso   1.000  C
  C137     1.0000 0.42937  0.53435  0.77970  Biso   1.000  C
  H149     1.0000 0.37977  0.46424  0.89450  Biso   1.000  H
  C138     1.0000 0.46378  0.47244  0.89352  Biso   1.000  C
  C139     1.0000 0.26029  0.84045  0.51712  Biso   1.000  C
  C140     1.0000 0.50128  0.92344  0.89271  Biso   1.000  C
  C141     1.0000 0.16165  0.33782  0.69441  Biso   1.000  C
  H150     1.0000 0.20076  0.33894  0.53241  Biso   1.000  H
  H151     1.0000 0.24928  0.37143  0.63701  Biso   1.000  H
  N26      1.0000 0.16727  0.47875  0.48672  Biso   1.000  N
  H152     1.0000 0.14688  0.39373  0.44435  Biso   1.000  H
  C142     1.0000 0.11206  0.39143  0.61055  Biso   1.000  C
  N27      1.0000 0.38729  0.55615  0.77515  Biso   1.000  N
  H153     1.0000 0.47135  0.56953  0.77658  Biso   1.000  H
  C143     1.0000 0.41896  0.49402  0.67045  Biso   1.000  C
  H154     1.0000 0.45676  0.44843  0.96728  Biso   1.000  H
  H155     1.0000 0.50617  0.50574  0.89432  Biso   1.000  H
  C144     1.0000 0.45368  0.43275  0.78516  Biso   1.000  C
  C145     1.0000 0.20845  0.77962  0.56200  Biso   1.000  C
  H156     1.0000 0.24686  0.85315  0.44435  Biso   1.000  H
  C146     1.0000 0.27935  0.88793  0.61055  Biso   1.000  C
  C147     1.0000 0.46567  0.89505  0.77970  Biso   1.000  C
  H157     1.0000 0.53577  0.91555  0.89450  Biso   1.000  H
  C148     1.0000 0.52758  0.99133  0.89352  Biso   1.000  C
  C149     1.0000 0.10156  0.33025  0.65212  Biso   1.000  C
  H158     1.0000 0.17456  0.36332  0.76719  Biso   1.000  H
  H159     1.0000 0.15568  0.29785  0.71658  Biso   1.000  H
  C150     1.0000 0.16177  0.48812  0.37783  Biso   1.000  C
  H160     1.0000 0.07387  0.38652  0.57854  Biso   1.000  H
  H161     1.0000 0.12368  0.41874  0.68020  Biso   1.000  H
  C151     1.0000 0.40757  0.61224  0.76325  Biso   1.000  C
  C152     1.0000 0.46116  0.46753  0.67036  Biso   1.000  C
  H162     1.0000 0.37665  0.46082  0.67018  Biso   1.000  H
  H163     1.0000 0.42578  0.51804  0.59660  Biso   1.000  H
  H164     1.0000 0.48287  0.41815  0.78632  Biso   1.000  H
  H165     1.0000 0.41256  0.39725  0.78838  Biso   1.000  H
  N28      1.0000 0.18867  0.73623  0.46795  Biso   1.000  N
  H166     1.0000 0.22257  0.76525  0.63120  Biso   1.000  H
  C153     1.0000 0.15467  0.78872  0.60250  Biso   1.000  C
  H167     1.0000 0.31265  0.92614  0.57854  Biso   1.000  H
  H168     1.0000 0.29506  0.87635  0.68020  Biso   1.000  H
  C154     1.0000 0.22868  0.89843  0.65212  Biso   1.000  C
  N29      1.0000 0.44385  0.83112  0.77515  Biso   1.000  N
  H169     1.0000 0.43048  0.90185  0.77658  Biso   1.000  H
  C155     1.0000 0.50597  0.92492  0.67045  Biso   1.000  C
  H170     1.0000 0.55153  0.00832  0.96728  Biso   1.000  H
  H171     1.0000 0.49429  0.00043  0.89432  Biso   1.000  H
  C156     1.0000 0.56728  0.02093  0.78516  Biso   1.000  C
  H172     1.0000 0.08538  0.30092  0.58543  Biso   1.000  H
  H173     1.0000 0.07198  0.31493  0.71828  Biso   1.000  H
  C157     1.0000 0.16438  0.54633  0.34233  Biso   1.000  C
  H174     1.0000 0.15595  0.45892  0.31900  Biso   1.000  H
  C158     1.0000 0.36967  0.63914  0.75896  Biso   1.000  C
  H175     1.0000 0.44995  0.63793  0.75664  Biso   1.000  H
  H176     1.0000 0.45177  0.44023  0.60080  Biso   1.000  H
  H177     1.0000 0.50348  0.50042  0.66285  Biso   1.000  H
  C159     1.0000 0.19727  0.69271  0.48333  Biso   1.000  C
  C160     1.0000 0.17616  0.83833  0.69441  Biso   1.000  C
  H178     1.0000 0.13815  0.79922  0.53241  Biso   1.000  H
  H179     1.0000 0.12218  0.75074  0.63701  Biso   1.000  H
  H180     1.0000 0.21557  0.91465  0.58543  Biso   1.000  H
  H181     1.0000 0.24298  0.92803  0.71828  Biso   1.000  H
  C161     1.0000 0.38776  0.79535  0.76325  Biso   1.000  C
  C162     1.0000 0.53248  0.99363  0.67036  Biso   1.000  C
  H182     1.0000 0.53915  0.91582  0.67018  Biso   1.000  H
  H183     1.0000 0.48195  0.90771  0.59660  Biso   1.000  H
  H184     1.0000 0.58184  0.06473  0.78632  Biso   1.000  H
  H185     1.0000 0.60276  0.01535  0.78838  Biso   1.000  H
  C163     1.0000 0.14749  0.55165  0.22825  Biso   1.000  C
  C164     1.0000 0.18149  0.59265  0.42441  Biso   1.000  C
  C165     1.0000 0.30598  0.60423  0.75914  Biso   1.000  C
  C166     1.0000 0.39577  0.70172  0.75914  Biso   1.000  C
  C167     1.0000 0.17958  0.64383  0.39437  Biso   1.000  C
  H186     1.0000 0.21598  0.69096  0.55521  Biso   1.000  H
  H187     1.0000 0.18876  0.82544  0.76719  Biso   1.000  H
  H188     1.0000 0.14216  0.84432  0.71658  Biso   1.000  H
  C168     1.0000 0.36085  0.73051  0.75896  Biso   1.000  C
  H189     1.0000 0.36207  0.81202  0.75664  Biso   1.000  H
  H190     1.0000 0.55972  0.01152  0.60080  Biso   1.000  H
  H191     1.0000 0.49953  0.00305  0.66285  Biso   1.000  H
  C169     1.0000 0.14398  0.60283  0.19866  Biso   1.000  C
  H192     1.0000 0.13837  0.52114  0.17041  Biso   1.000  H
  H193     1.0000 0.19468  0.58913  0.50183  Biso   1.000  H
  C170     1.0000 0.26947  0.63031  0.75896  Biso   1.000  C
  H194     1.0000 0.28747  0.56151  0.75932  Biso   1.000  H
  H195     1.0000 0.43846  0.72592  0.75932  Biso   1.000  H
  C171     1.0000 0.16076  0.64865  0.28002  Biso   1.000  C
  C172     1.0000 0.29828  0.69402  0.75914  Biso   1.000  C
  C173     1.0000 0.11945  0.60693  0.07814  Biso   1.000  C
  C174     1.0000 0.20467  0.59242  0.76325  Biso   1.000  C
  H196     1.0000 0.15966  0.68384  0.25811  Biso   1.000  H
  H197     1.0000 0.27406  0.71254  0.75932  Biso   1.000  H
  N30      1.0000 0.10327  0.56854  0.00080  Biso   1.000  N
  H198     1.0000 0.11658  0.64176  0.06169  Biso   1.000  H
  N31      1.0000 0.16887  0.61274  0.77515  Biso   1.000  N
  H199     1.0000 0.18796  0.55002  0.75664  Biso   1.000  H
  C175     1.0000 0.07657  0.57782  0.89271  Biso   1.000  C
  C176     1.0000 0.10496  0.57061  0.77970  Biso   1.000  C
  H200     1.0000 0.08447  0.62022  0.89450  Biso   1.000  H
  C177     1.0000 0.00869  0.53624  0.89352  Biso   1.000  C
  H201     1.0000 0.09817  0.52862  0.77658  Biso   1.000  H
  C178     1.0000 0.07505  0.58102  0.67045  Biso   1.000  C
  H202     1.0000 0.99165  0.54322  0.96728  Biso   1.000  H
  H203     1.0000 0.99958  0.49384  0.89432  Biso   1.000  H
  C179     1.0000 0.97908  0.54633  0.78516  Biso   1.000  C
  C180     1.0000 0.00636  0.53885  0.67036  Biso   1.000  C
  H204     1.0000 0.08415  0.62333  0.67018  Biso   1.000  H
  H205     1.0000 0.09225  0.57422  0.59660  Biso   1.000  H
  H206     1.0000 0.93526  0.51713  0.78632  Biso   1.000  H
  H207     1.0000 0.98465  0.58742  0.78838  Biso   1.000  H
  H208     1.0000 0.98846  0.54822  0.60080  Biso   1.000  H
  H209     1.0000 0.99696  0.49655  0.66285  Biso   1.000  H
  C181     1.0000 0.86091  0.65802  0.56021  Biso   1.000  C
  C182     1.0000 0.83458  0.59008  0.55941  Biso   1.000  C
  H210     1.0000 0.88489  0.67501  0.63388  Biso   1.000  H
  H211     1.0000 0.82761  0.66712  0.56102  Biso   1.000  H
  C183     1.0000 0.90060  0.68762  0.45177  Biso   1.000  C
  C184     1.0000 0.79901  0.56169  0.44640  Biso   1.000  C
  N32      1.0000 0.79862  0.56341  0.66750  Biso   1.000  N
  H212     1.0000 0.86911  0.58219  0.56120  Biso   1.000  H
  C185     1.0000 0.86580  0.66032  0.33697  Biso   1.000  C
  H213     1.0000 0.91520  0.73141  0.45302  Biso   1.000  H
  H214     1.0000 0.93610  0.68199  0.45498  Biso   1.000  H
  N33      1.0000 0.77721  0.49781  0.44175  Biso   1.000  N
  H215     1.0000 0.76378  0.56850  0.44318  Biso   1.000  H
  C186     1.0000 0.83929  0.59161  0.33706  Biso   1.000  C
  C187     1.0000 0.82079  0.54719  0.74475  Biso   1.000  C
  H216     1.0000 0.89308  0.67820  0.26750  Biso   1.000  H
  H217     1.0000 0.83291  0.66969  0.32946  Biso   1.000  H
  C188     1.0000 0.72110  0.46199  0.42986  Biso   1.000  C
  H218     1.0000 0.87251  0.58251  0.33679  Biso   1.000  H
  H219     1.0000 0.81531  0.57440  0.26330  Biso   1.000  H
  H220     1.0000 0.85850  0.55011  0.72839  Biso   1.000  H
  C189     1.0000 0.79220  0.52272  0.86527  Biso   1.000  C
  C190     1.0000 0.69421  0.39720  0.42557  Biso   1.000  C
  H221     1.0000 0.69540  0.47870  0.42333  Biso   1.000  H
  C191     1.0000 0.73750  0.51921  0.89486  Biso   1.000  C
  C192     1.0000 0.82122  0.50592  0.94671  Biso   1.000  C
  C193     1.0000 0.63160  0.36071  0.42575  Biso   1.000  C
  C194     1.0000 0.72910  0.36841  0.42575  Biso   1.000  C
  C195     1.0000 0.71532  0.50231  0.00894  Biso   1.000  C
  H222     1.0000 0.71610  0.52831  0.83710  Biso   1.000  H
  H223     1.0000 0.85750  0.50700  0.92481  Biso   1.000  H
  C196     1.0000 0.79760  0.48708  0.06097  Biso   1.000  C
  C197     1.0000 0.60279  0.29700  0.42557  Biso   1.000  C
  H224     1.0000 0.60740  0.37918  0.42602  Biso   1.000  H
  C198     1.0000 0.70301  0.30578  0.42557  Biso   1.000  C
  H225     1.0000 0.77178  0.39260  0.42602  Biso   1.000  H
  C199     1.0000 0.65967  0.50488  0.04452  Biso   1.000  C
  C200     1.0000 0.74449  0.48519  0.09110  Biso   1.000  C
  C201     1.0000 0.82880  0.46942  0.15002  Biso   1.000  C
  C202     1.0000 0.53800  0.25911  0.42986  Biso   1.000  C
  C203     1.0000 0.63930  0.27091  0.42575  Biso   1.000  C
  C204     1.0000 0.74091  0.27889  0.42986  Biso   1.000  C
  N34      1.0000 0.64479  0.49938  0.15342  Biso   1.000  N
  H226     1.0000 0.63628  0.51069  0.98570  Biso   1.000  H
  H227     1.0000 0.72778  0.47199  0.16844  Biso   1.000  H
  N35      1.0000 0.88088  0.47798  0.13456  Biso   1.000  N
  H228     1.0000 0.80827  0.45068  0.22190  Biso   1.000  H
  N36      1.0000 0.50221  0.27938  0.44175  Biso   1.000  N
  H229     1.0000 0.52129  0.21671  0.42333  Biso   1.000  H
  H230     1.0000 0.62079  0.22820  0.42602  Biso   1.000  H
  N37      1.0000 0.72059  0.22279  0.44175  Biso   1.000  N
  H231     1.0000 0.78331  0.30461  0.42333  Biso   1.000  H
  C205     1.0000 0.59359  0.50709  0.18382  Biso   1.000  C
  C206     1.0000 0.90451  0.45820  0.22870  Biso   1.000  C
  C207     1.0000 0.43829  0.23730  0.44640  Biso   1.000  C
  C208     1.0000 0.76271  0.20099  0.44640  Biso   1.000  C
  C209     1.0000 0.54182  0.44631  0.22870  Biso   1.000  C
  H232     1.0000 0.58020  0.51979  0.11095  Biso   1.000  H
  C210     1.0000 0.61271  0.55462  0.27716  Biso   1.000  C
  C211     1.0000 0.91348  0.40639  0.18382  Biso   1.000  C
  H233     1.0000 0.87600  0.44410  0.29790  Biso   1.000  H
  C212     1.0000 0.96738  0.51200  0.26920  Biso   1.000  C
  C213     1.0000 0.40842  0.24771  0.33706  Biso   1.000  C
  C214     1.0000 0.40990  0.24451  0.55941  Biso   1.000  C
  H234     1.0000 0.43150  0.19531  0.44318  Biso   1.000  H
  H235     1.0000 0.80472  0.23622  0.44318  Biso   1.000  H
  C215     1.0000 0.75549  0.16539  0.55941  Biso   1.000  C
  C216     1.0000 0.75229  0.16071  0.33706  Biso   1.000  C
  N38      1.0000 0.52200  0.40292  0.13456  Biso   1.000  N
  H236     1.0000 0.55591  0.43189  0.29790  Biso   1.000  H
  C217     1.0000 0.48800  0.45541  0.26920  Biso   1.000  C
  H237     1.0000 0.64599  0.59278  0.24515  Biso   1.000  H
  H238     1.0000 0.62840  0.54300  0.34689  Biso   1.000  H
  C218     1.0000 0.56201  0.56512  0.31882  Biso   1.000  C
  N39      1.0000 0.85461  0.35521  0.15342  Biso   1.000  N
  H239     1.0000 0.93959  0.41982  0.11095  Biso   1.000  H
  C219     1.0000 0.94190  0.38729  0.27716  Biso   1.000  C
  C220     1.0000 0.99550  0.49051  0.36111  Biso   1.000  C
  H240     1.0000 0.99439  0.52849  0.19911  Biso   1.000  H
  H241     1.0000 0.96189  0.54448  0.30371  Biso   1.000  H
  C221     1.0000 0.33970  0.20549  0.33697  Biso   1.000  C
  H242     1.0000 0.41751  0.29002  0.33679  Biso   1.000  H
  H243     1.0000 0.42562  0.24091  0.26330  Biso   1.000  H
  C222     1.0000 0.34199  0.20288  0.56021  Biso   1.000  C
  N40      1.0000 0.43661  0.23518  0.66750  Biso   1.000  N
  H244     1.0000 0.41779  0.28691  0.56120  Biso   1.000  H
  N41      1.0000 0.76479  0.20139  0.66750  Biso   1.000  N
  H245     1.0000 0.71311  0.13088  0.56120  Biso   1.000  H
  C223     1.0000 0.79708  0.13908  0.56021  Biso   1.000  C
  C224     1.0000 0.79453  0.13422  0.33697  Biso   1.000  C
  H246     1.0000 0.71001  0.12750  0.33679  Biso   1.000  H
  H247     1.0000 0.75908  0.18468  0.26330  Biso   1.000  H
  C225     1.0000 0.53059  0.35940  0.15002  Biso   1.000  C
  C226     1.0000 0.50952  0.50502  0.36111  Biso   1.000  C
  H248     1.0000 0.47151  0.46591  0.19911  Biso   1.000  H
  H249     1.0000 0.45548  0.41738  0.30371  Biso   1.000  H
  H250     1.0000 0.54891  0.58129  0.25203  Biso   1.000  H
  H251     1.0000 0.57630  0.59472  0.38498  Biso   1.000  H
  C227     1.0000 0.84520  0.34030  0.04452  Biso   1.000  C
  H252     1.0000 0.94679  0.35399  0.24515  Biso   1.000  H
  H253     1.0000 0.91459  0.37161  0.34689  Biso   1.000  H
  C228     1.0000 0.00312  0.43802  0.31882  Biso   1.000  C
  H254     1.0000 0.96999  0.47789  0.43388  Biso   1.000  H
  H255     1.0000 0.03550  0.52448  0.38328  Biso   1.000  H
  C229     1.0000 0.31241  0.21302  0.45177  Biso   1.000  C
  H256     1.0000 0.32182  0.21491  0.26750  Biso   1.000  H
  H257     1.0000 0.33030  0.16319  0.32946  Biso   1.000  H
  H258     1.0000 0.32502  0.20991  0.63388  Biso   1.000  H
  H259     1.0000 0.33289  0.16048  0.56102  Biso   1.000  H
  C230     1.0000 0.45282  0.27362  0.74475  Biso   1.000  C
  C231     1.0000 0.72641  0.17918  0.74475  Biso   1.000  C
  H260     1.0000 0.79013  0.11511  0.63388  Biso   1.000  H
  H261     1.0000 0.83948  0.17238  0.56102  Biso   1.000  H
  C232     1.0000 0.78698  0.09939  0.45177  Biso   1.000  C
  H262     1.0000 0.78509  0.10691  0.26750  Biso   1.000  H
  H263     1.0000 0.83680  0.16711  0.32946  Biso   1.000  H
  C233     1.0000 0.51290  0.31052  0.06097  Biso   1.000  C
  H264     1.0000 0.54932  0.35760  0.22190  Biso   1.000  H
  H265     1.0000 0.52210  0.49208  0.43388  Biso   1.000  H
  H266     1.0000 0.47549  0.51101  0.38328  Biso   1.000  H
  C234     1.0000 0.78701  0.28470  0.00894  Biso   1.000  C
  H267     1.0000 0.87438  0.36368  0.98570  Biso   1.000  H
  H268     1.0000 0.03240  0.45109  0.25203  Biso   1.000  H
  H269     1.0000 0.01839  0.42369  0.38498  Biso   1.000  H
  H270     1.0000 0.26862  0.18382  0.45302  Biso   1.000  H
  H271     1.0000 0.31801  0.25411  0.45498  Biso   1.000  H
  H272     1.0000 0.44988  0.30840  0.72839  Biso   1.000  H
  C235     1.0000 0.47730  0.26952  0.86527  Biso   1.000  C
  H273     1.0000 0.69162  0.14152  0.72839  Biso   1.000  H
  C236     1.0000 0.73049  0.20779  0.86527  Biso   1.000  C
  H274     1.0000 0.81621  0.08479  0.45302  Biso   1.000  H
  H275     1.0000 0.74590  0.06389  0.45498  Biso   1.000  H
  C237     1.0000 0.49410  0.31529  0.94671  Biso   1.000  C
  C238     1.0000 0.51479  0.25929  0.09110  Biso   1.000  C
  C239     1.0000 0.78168  0.26249  0.89486  Biso   1.000  C
  C240     1.0000 0.74069  0.25550  0.09110  Biso   1.000  C
  C241     1.0000 0.48079  0.21829  0.89486  Biso   1.000  C
  C242     1.0000 0.68471  0.17882  0.94671  Biso   1.000  C
  H276     1.0000 0.49300  0.35048  0.92481  Biso   1.000  H
  C243     1.0000 0.49771  0.21302  0.00894  Biso   1.000  C
  H277     1.0000 0.52800  0.25582  0.16844  Biso   1.000  H
  H278     1.0000 0.81220  0.28389  0.83710  Biso   1.000  H
  C244     1.0000 0.68951  0.20238  0.06097  Biso   1.000  C
  H279     1.0000 0.74421  0.27222  0.16844  Biso   1.000  H
  H280     1.0000 0.47171  0.18779  0.83710  Biso   1.000  H
  H281     1.0000 0.64950  0.14251  0.92481  Biso   1.000  H
  C245     1.0000 0.49509  0.15481  0.04452  Biso   1.000  C
  C246     1.0000 0.64060  0.17121  0.15002  Biso   1.000  C
  H282     1.0000 0.48931  0.12561  0.98570  Biso   1.000  H
  N42      1.0000 0.50061  0.14539  0.15342  Biso   1.000  N
  N43      1.0000 0.59709  0.11908  0.13456  Biso   1.000  N
  H283     1.0000 0.64242  0.19171  0.22190  Biso   1.000  H
  C247     1.0000 0.49290  0.08650  0.18382  Biso   1.000  C
  C248     1.0000 0.55371  0.09552  0.22870  Biso   1.000  C
  H284     1.0000 0.48021  0.06042  0.11095  Biso   1.000  H
  C249     1.0000 0.44542  0.05812  0.27716  Biso   1.000  C
  H285     1.0000 0.56810  0.12399  0.29790  Biso   1.000  H
  C250     1.0000 0.54462  0.03262  0.26920  Biso   1.000  C
  C251     1.0000 0.43494  0.99689  0.31882  Biso   1.000  C
  H286     1.0000 0.40719  0.05321  0.24515  Biso   1.000  H
  H287     1.0000 0.45699  0.08538  0.34689  Biso   1.000  H
  C252     1.0000 0.49501  0.00451  0.36111  Biso   1.000  C
  H288     1.0000 0.53411  0.00559  0.19911  Biso   1.000  H
  H289     1.0000 0.58260  0.03812  0.30371  Biso   1.000  H
  H290     1.0000 0.41870  0.96761  0.25203  Biso   1.000  H
  H291     1.0000 0.40530  0.98162  0.38498  Biso   1.000  H
  H292     1.0000 0.48902  0.96450  0.38328  Biso   1.000  H
  H293     1.0000 0.50792  0.03001  0.43388  Biso   1.000  H
