data_image0
_cell_length_a       12.077
_cell_length_b       19.16
_cell_length_c       15.306
_cell_angle_alpha    90
_cell_angle_beta     93.08
_cell_angle_gamma    90

_symmetry_space_group_name_H-M    "P 1"
_symmetry_int_tables_number       1

loop_
  _symmetry_equiv_pos_as_xyz
  'x, y, z'

loop_
  _atom_site_label
  _atom_site_occupancy
  _atom_site_fract_x
  _atom_site_fract_y
  _atom_site_fract_z
  _atom_site_thermal_displace_type
  _atom_site_B_iso_or_equiv
  _atom_site_type_symbol
  C1       1.0000 0.61362  0.52411  0.42404  Biso   1.000  C
  C2       1.0000 0.68030  0.46806  0.40127  Biso   1.000  C
  C3       1.0000 0.51490  0.53925  0.37746  Biso   1.000  C
  H1       1.0000 0.63647  0.55261  0.47259  Biso   1.000  H
  C4       1.0000 0.64567  0.42552  0.33041  Biso   1.000  C
  C5       1.0000 0.78898  0.45778  0.45545  Biso   1.000  C
  C6       1.0000 0.47845  0.49687  0.30791  Biso   1.000  C
  O1       1.0000 0.46048  0.59843  0.40520  Biso   1.000  O
  C7       1.0000 0.54411  0.44071  0.28605  Biso   1.000  C
  C8       1.0000 0.71333  0.36529  0.29659  Biso   1.000  C
  C9       1.0000 0.88083  0.50501  0.42535  Biso   1.000  C
  H2       1.0000 0.81260  0.40851  0.45087  Biso   1.000  H
  H3       1.0000 0.77666  0.46759  0.51767  Biso   1.000  H
  H4       1.0000 0.41021  0.50611  0.27617  Biso   1.000  H
  C10      1.0000 0.35849  0.61670  0.36300  Biso   1.000  C
  H5       1.0000 0.51913  0.41133  0.23901  Biso   1.000  H
  H6       1.0000 0.76250  0.34692  0.34500  Biso   1.000  H
  H7       1.0000 0.66254  0.32730  0.27670  Biso   1.000  H
  C11      1.0000 0.78364  0.38659  0.22134  Biso   1.000  C
  C12      1.0000 0.95396  0.48570  0.36110  Biso   1.000  C
  C13      1.0000 0.89204  0.57129  0.46232  Biso   1.000  C
  O2       1.0000 0.36459  0.63158  0.27257  Biso   1.000  O
  H8       1.0000 0.30547  0.57792  0.36980  Biso   1.000  H
  H9       1.0000 0.32870  0.65809  0.39237  Biso   1.000  H
  C14      1.0000 0.89522  0.40741  0.23299  Biso   1.000  C
  C15      1.0000 0.73365  0.38711  0.13661  Biso   1.000  C
  C16      1.0000 0.95684  0.41268  0.32191  Biso   1.000  C
  C17      1.0000 0.02882  0.53486  0.33205  Biso   1.000  C
  C18      1.0000 0.96805  0.61999  0.43431  Biso   1.000  C
  H10      1.0000 0.84607  0.58372  0.50831  Biso   1.000  H
  C19      1.0000 0.44022  0.68116  0.24752  Biso   1.000  C
  C20      1.0000 0.95173  0.42604  0.15938  Biso   1.000  C
  H11      1.0000 0.65879  0.37229  0.12791  Biso   1.000  H
  C21      1.0000 0.79056  0.40866  0.06523  Biso   1.000  C
  H12      1.0000 0.92366  0.37938  0.36247  Biso   1.000  H
  H13      1.0000 0.03502  0.39880  0.31602  Biso   1.000  H
  C22      1.0000 0.03398  0.60193  0.36653  Biso   1.000  C
  H14      1.0000 0.07722  0.52223  0.28769  Biso   1.000  H
  H15      1.0000 0.97452  0.66461  0.46120  Biso   1.000  H
  C23      1.0000 0.45292  0.68565  0.15801  Biso   1.000  C
  C24      1.0000 0.50056  0.72500  0.30424  Biso   1.000  C
  C25      1.0000 0.90173  0.42787  0.07564  Biso   1.000  C
  H16      1.0000 0.02793  0.43800  0.16691  Biso   1.000  H
  O3       1.0000 0.72885  0.41013  0.98587  Biso   1.000  O
  O4       1.0000 0.10953  0.64614  0.32930  Biso   1.000  O
  C26      1.0000 0.52892  0.73147  0.12379  Biso   1.000  C
  H17      1.0000 0.40889  0.65689  0.11941  Biso   1.000  H
  C27      1.0000 0.57556  0.77098  0.27002  Biso   1.000  C
  H18      1.0000 0.49064  0.72359  0.36542  Biso   1.000  H
  H19      1.0000 0.94213  0.44170  0.02689  Biso   1.000  H
  C28      1.0000 0.77744  0.43810  0.91148  Biso   1.000  C
  C29      1.0000 0.10632  0.71806  0.35017  Biso   1.000  C
  C30      1.0000 0.59348  0.77458  0.18052  Biso   1.000  C
  C31      1.0000 0.53750  0.73126  0.02480  Biso   1.000  C
  H20      1.0000 0.61654  0.80130  0.30882  Biso   1.000  H
  O5       1.0000 0.81425  0.50767  0.92175  Biso   1.000  O
  H21      1.0000 0.72259  0.43580  0.86110  Biso   1.000  H
  H22      1.0000 0.84124  0.40851  0.89741  Biso   1.000  H
  O6       1.0000 0.00126  0.74875  0.33349  Biso   1.000  O
  H23      1.0000 0.16103  0.74301  0.31582  Biso   1.000  H
  H24      1.0000 0.12864  0.72411  0.41292  Biso   1.000  H
  C32      1.0000 0.68453  0.82223  0.15081  Biso   1.000  C
  H25      1.0000 0.56747  0.77672  0.00648  Biso   1.000  H
  H26      1.0000 0.46238  0.72610  0.99653  Biso   1.000  H
  C33      1.0000 0.61118  0.67317  0.99293  Biso   1.000  C
  C34      1.0000 0.73982  0.55934  0.94262  Biso   1.000  C
  C35      1.0000 0.95718  0.75042  0.24784  Biso   1.000  C
  C36      1.0000 0.79729  0.78653  0.15546  Biso   1.000  C
  H27      1.0000 0.66622  0.83721  0.08990  Biso   1.000  H
  H28      1.0000 0.68815  0.86441  0.18817  Biso   1.000  H
  C37      1.0000 0.56494  0.60725  0.97664  Biso   1.000  C
  C38      1.0000 0.72500  0.68199  0.98031  Biso   1.000  C
  C39      1.0000 0.62690  0.55026  0.95145  Biso   1.000  C
  C40      1.0000 0.78723  0.62500  0.95551  Biso   1.000  C
  C41      1.0000 0.85438  0.78267  0.23750  Biso   1.000  C
  C42      1.0000 0.00769  0.72312  0.17613  Biso   1.000  C
  C43      1.0000 0.84508  0.75663  0.08270  Biso   1.000  C
  H29      1.0000 0.48770  0.60110  0.98299  Biso   1.000  H
  C44      1.0000 0.78514  0.75130  0.99287  Biso   1.000  C
  H30      1.0000 0.59287  0.50621  0.94059  Biso   1.000  H
  H31      1.0000 0.86409  0.63100  0.94720  Biso   1.000  H
  H32      1.0000 0.82206  0.80251  0.28697  Biso   1.000  H
  C45      1.0000 0.95048  0.72672  0.09474  Biso   1.000  C
  H33      1.0000 0.07932  0.70251  0.18228  Biso   1.000  H
  H34      1.0000 0.83958  0.75652  0.94720  Biso   1.000  H
  H35      1.0000 0.73091  0.78993  0.98567  Biso   1.000  H
  H36      1.0000 0.98454  0.70809  0.04528  Biso   1.000  H
  C46      1.0000 0.38649  0.47589  0.57597  Biso   1.000  C
  C47      1.0000 0.31973  0.53194  0.59873  Biso   1.000  C
  C48      1.0000 0.48522  0.46075  0.62255  Biso   1.000  C
  H37      1.0000 0.36365  0.44739  0.52742  Biso   1.000  H
  C49      1.0000 0.21105  0.54222  0.54456  Biso   1.000  C
  C50      1.0000 0.35437  0.57453  0.66959  Biso   1.000  C
  O7       1.0000 0.53963  0.40157  0.59481  Biso   1.000  O
  C51      1.0000 0.52167  0.50318  0.69210  Biso   1.000  C
  C52      1.0000 0.11920  0.49504  0.57466  Biso   1.000  C
  H38      1.0000 0.18743  0.59149  0.54907  Biso   1.000  H
  H39      1.0000 0.22345  0.53241  0.48227  Biso   1.000  H
  C53      1.0000 0.28670  0.63471  0.70342  Biso   1.000  C
  C54      1.0000 0.45600  0.55929  0.71395  Biso   1.000  C
  C55      1.0000 0.64162  0.38335  0.63701  Biso   1.000  C
  H40      1.0000 0.58990  0.49389  0.72377  Biso   1.000  H
  C56      1.0000 0.10807  0.42871  0.53769  Biso   1.000  C
  C57      1.0000 0.04615  0.51435  0.63884  Biso   1.000  C
  C58      1.0000 0.21648  0.61347  0.77866  Biso   1.000  C
  H41      1.0000 0.23753  0.65313  0.65500  Biso   1.000  H
  H42      1.0000 0.33757  0.67270  0.72331  Biso   1.000  H
  H43      1.0000 0.48098  0.58873  0.76100  Biso   1.000  H
  O8       1.0000 0.63553  0.36842  0.72743  Biso   1.000  O
  H44      1.0000 0.69465  0.42213  0.63021  Biso   1.000  H
  H45      1.0000 0.67133  0.34191  0.60757  Biso   1.000  H
  C59      1.0000 0.03206  0.38001  0.56563  Biso   1.000  C
  H46      1.0000 0.15404  0.41628  0.49169  Biso   1.000  H
  C60      1.0000 0.97129  0.46514  0.66796  Biso   1.000  C
  C61      1.0000 0.04328  0.58732  0.67810  Biso   1.000  C
  C62      1.0000 0.10489  0.59259  0.76695  Biso   1.000  C
  C63      1.0000 0.26646  0.61289  0.86333  Biso   1.000  C
  C64      1.0000 0.55981  0.31884  0.75243  Biso   1.000  C
  H47      1.0000 0.02551  0.33539  0.53880  Biso   1.000  H
  C65      1.0000 0.96613  0.39807  0.63341  Biso   1.000  C
  H48      1.0000 0.92290  0.47782  0.71232  Biso   1.000  H
  H49      1.0000 0.07645  0.62062  0.63747  Biso   1.000  H
  H50      1.0000 0.96510  0.60120  0.68399  Biso   1.000  H
  C66      1.0000 0.04838  0.57401  0.84062  Biso   1.000  C
  H51      1.0000 0.34124  0.62771  0.87209  Biso   1.000  H
  C67      1.0000 0.20955  0.59139  0.93471  Biso   1.000  C
  C68      1.0000 0.54711  0.31435  0.84200  Biso   1.000  C
  C69      1.0000 0.49956  0.27500  0.69570  Biso   1.000  C
  O9       1.0000 0.89050  0.35386  0.67071  Biso   1.000  O
  C70      1.0000 0.09830  0.57218  0.92437  Biso   1.000  C
  H52      1.0000 0.97219  0.56200  0.83310  Biso   1.000  H
  O10      1.0000 0.27126  0.58987  0.01414  Biso   1.000  O
  C71      1.0000 0.47119  0.26853  0.87622  Biso   1.000  C
  H53      1.0000 0.59114  0.34311  0.88060  Biso   1.000  H
  C72      1.0000 0.42447  0.22902  0.72998  Biso   1.000  C
  H54      1.0000 0.50947  0.27641  0.63459  Biso   1.000  H
  C73      1.0000 0.89380  0.28194  0.64983  Biso   1.000  C
  H55      1.0000 0.05799  0.55830  0.97312  Biso   1.000  H
  C74      1.0000 0.22267  0.56195  0.08853  Biso   1.000  C
  C75      1.0000 0.40663  0.22542  0.81942  Biso   1.000  C
  C76      1.0000 0.46253  0.26879  0.97514  Biso   1.000  C
  H56      1.0000 0.38357  0.19870  0.69119  Biso   1.000  H
  O11      1.0000 0.99885  0.25130  0.66645  Biso   1.000  O
  H57      1.0000 0.83909  0.25699  0.68418  Biso   1.000  H
  H58      1.0000 0.87148  0.27589  0.58709  Biso   1.000  H
  O12      1.0000 0.18587  0.49233  0.07826  Biso   1.000  O
  H59      1.0000 0.27752  0.56420  0.13891  Biso   1.000  H
  H60      1.0000 0.15880  0.59149  0.10260  Biso   1.000  H
  C77      1.0000 0.31559  0.17777  0.84919  Biso   1.000  C
  C78      1.0000 0.38894  0.32688  0.00707  Biso   1.000  C
  H61      1.0000 0.43256  0.22328  0.99346  Biso   1.000  H
  H62      1.0000 0.53774  0.27390  0.00347  Biso   1.000  H
  C79      1.0000 0.04294  0.24958  0.75216  Biso   1.000  C
  C80      1.0000 0.26030  0.44066  0.05739  Biso   1.000  C
  C81      1.0000 0.20275  0.21347  0.84455  Biso   1.000  C
  H63      1.0000 0.33390  0.16279  0.91011  Biso   1.000  H
  H64      1.0000 0.31196  0.13559  0.81177  Biso   1.000  H
  C82      1.0000 0.27503  0.31806  0.01970  Biso   1.000  C
  C83      1.0000 0.43518  0.39275  0.02337  Biso   1.000  C
  C84      1.0000 0.14574  0.21733  0.76250  Biso   1.000  C
  C85      1.0000 0.99234  0.27693  0.82381  Biso   1.000  C
  C86      1.0000 0.21280  0.37500  0.04450  Biso   1.000  C
  C87      1.0000 0.37313  0.44979  0.04856  Biso   1.000  C
  C88      1.0000 0.15503  0.24337  0.91724  Biso   1.000  C
  C89      1.0000 0.21498  0.24870  0.00714  Biso   1.000  C
  H65      1.0000 0.51241  0.39890  0.01702  Biso   1.000  H
  H66      1.0000 0.17805  0.19749  0.71297  Biso   1.000  H
  C90      1.0000 0.04964  0.27328  0.90527  Biso   1.000  C
  H67      1.0000 0.92080  0.29749  0.81772  Biso   1.000  H
  H68      1.0000 0.13603  0.36900  0.05281  Biso   1.000  H
  H69      1.0000 0.40724  0.49379  0.05942  Biso   1.000  H
  H70      1.0000 0.16054  0.24353  0.05281  Biso   1.000  H
  H71      1.0000 0.26920  0.21013  0.01427  Biso   1.000  H
  H72      1.0000 0.01558  0.29191  0.95467  Biso   1.000  H
  C91      1.0000 0.68454  0.67777  0.65082  Biso   1.000  C
  C92      1.0000 0.59358  0.72542  0.68052  Biso   1.000  C
  C93      1.0000 0.79739  0.71347  0.65546  Biso   1.000  C
  H73      1.0000 0.66624  0.66279  0.58990  Biso   1.000  H
  H74      1.0000 0.68816  0.63559  0.68818  Biso   1.000  H
  C94      1.0000 0.52894  0.76853  0.62379  Biso   1.000  C
  C95      1.0000 0.57566  0.72902  0.77003  Biso   1.000  C
  C96      1.0000 0.84510  0.74337  0.58271  Biso   1.000  C
  C97      1.0000 0.85439  0.71733  0.73751  Biso   1.000  C
  C98      1.0000 0.53760  0.76879  0.52480  Biso   1.000  C
  C99      1.0000 0.45302  0.81435  0.65801  Biso   1.000  C
  H75      1.0000 0.61655  0.69870  0.80876  Biso   1.000  H
  C100     1.0000 0.50057  0.77500  0.80425  Biso   1.000  C
  C101     1.0000 0.78507  0.74870  0.49287  Biso   1.000  C
  C102     1.0000 0.95049  0.77328  0.59474  Biso   1.000  C
  H76      1.0000 0.82208  0.69749  0.78697  Biso   1.000  H
  C103     1.0000 0.95719  0.74958  0.74785  Biso   1.000  C
  H77      1.0000 0.56757  0.72333  0.50648  Biso   1.000  H
  H78      1.0000 0.46231  0.77390  0.49647  Biso   1.000  H
  C104     1.0000 0.61111  0.82688  0.49294  Biso   1.000  C
  H79      1.0000 0.40899  0.84311  0.61941  Biso   1.000  H
  C105     1.0000 0.44032  0.81884  0.74752  Biso   1.000  C
  H80      1.0000 0.49066  0.77641  0.86542  Biso   1.000  H
  C106     1.0000 0.72501  0.81806  0.48024  Biso   1.000  C
  H81      1.0000 0.83951  0.74353  0.44720  Biso   1.000  H
  H82      1.0000 0.73085  0.71013  0.48567  Biso   1.000  H
  H83      1.0000 0.98455  0.79191  0.54528  Biso   1.000  H
  C107     1.0000 0.00779  0.77693  0.67614  Biso   1.000  C
  O13      1.0000 0.00128  0.75130  0.83349  Biso   1.000  O
  C108     1.0000 0.56487  0.89280  0.47665  Biso   1.000  C
  O14      1.0000 0.36461  0.86842  0.77258  Biso   1.000  O
  C109     1.0000 0.78725  0.87500  0.45551  Biso   1.000  C
  H84      1.0000 0.07933  0.79749  0.68229  Biso   1.000  H
  C110     1.0000 0.10633  0.78194  0.85018  Biso   1.000  C
  H85      1.0000 0.48764  0.89890  0.48299  Biso   1.000  H
  C111     1.0000 0.62692  0.94979  0.45146  Biso   1.000  C
  C112     1.0000 0.35851  0.88335  0.86300  Biso   1.000  C
  C113     1.0000 0.73975  0.94066  0.44256  Biso   1.000  C
  H86      1.0000 0.86402  0.86900  0.44720  Biso   1.000  H
  O15      1.0000 0.10963  0.85386  0.82930  Biso   1.000  O
  H87      1.0000 0.16104  0.75699  0.81576  Biso   1.000  H
  H88      1.0000 0.12866  0.77589  0.91292  Biso   1.000  H
  H89      1.0000 0.59281  0.99384  0.44059  Biso   1.000  H
  O16      1.0000 0.46050  0.90157  0.90520  Biso   1.000  O
  H90      1.0000 0.30548  0.92213  0.86980  Biso   1.000  H
  H91      1.0000 0.32880  0.84191  0.89238  Biso   1.000  H
  O17      1.0000 0.81418  0.99238  0.42175  Biso   1.000  O
  C114     1.0000 0.03400  0.89807  0.86653  Biso   1.000  C
  C115     1.0000 0.51491  0.96075  0.87746  Biso   1.000  C
  C116     1.0000 0.77738  0.06195  0.41148  Biso   1.000  C
  C117     1.0000 0.96807  0.88001  0.93432  Biso   1.000  C
  C118     1.0000 0.02883  0.96519  0.83199  Biso   1.000  C
  C119     1.0000 0.61364  0.97589  0.92398  Biso   1.000  C
  C120     1.0000 0.47846  0.00318  0.80791  Biso   1.000  C
  O18      1.0000 0.72879  0.08987  0.48587  Biso   1.000  O
  H92      1.0000 0.72253  0.06420  0.36110  Biso   1.000  H
  H93      1.0000 0.84125  0.09149  0.39741  Biso   1.000  H
  H94      1.0000 0.97462  0.83544  0.96121  Biso   1.000  H
  C121     1.0000 0.89206  0.92871  0.96232  Biso   1.000  C
  C122     1.0000 0.95398  0.01435  0.86110  Biso   1.000  C
  H95      1.0000 0.07724  0.97782  0.78769  Biso   1.000  H
  H96      1.0000 0.63649  0.94739  0.97259  Biso   1.000  H
  C123     1.0000 0.68040  0.03194  0.90128  Biso   1.000  C
  H97      1.0000 0.41023  0.99389  0.77618  Biso   1.000  H
  C124     1.0000 0.54413  0.05934  0.78606  Biso   1.000  C
  C125     1.0000 0.79058  0.09139  0.56524  Biso   1.000  C
  C126     1.0000 0.88093  0.99504  0.92535  Biso   1.000  C
  H98      1.0000 0.84601  0.91634  0.00832  Biso   1.000  H
  C127     1.0000 0.95685  0.08732  0.82185  Biso   1.000  C
  C128     1.0000 0.64577  0.07453  0.83042  Biso   1.000  C
  C129     1.0000 0.78908  0.04222  0.95539  Biso   1.000  C
  H99      1.0000 0.51915  0.08873  0.73901  Biso   1.000  H
  C130     1.0000 0.90183  0.07218  0.57564  Biso   1.000  C
  C131     1.0000 0.73367  0.11289  0.63662  Biso   1.000  C
  C132     1.0000 0.89524  0.09259  0.73299  Biso   1.000  C
  H100     1.0000 0.92368  0.12062  0.86248  Biso   1.000  H
  H101     1.0000 0.03503  0.10120  0.81602  Biso   1.000  H
  C133     1.0000 0.71343  0.13476  0.79652  Biso   1.000  C
  H102     1.0000 0.81270  0.09149  0.95087  Biso   1.000  H
  H103     1.0000 0.77659  0.03241  0.01767  Biso   1.000  H
  H104     1.0000 0.94215  0.05830  0.52689  Biso   1.000  H
  C134     1.0000 0.95175  0.07401  0.65939  Biso   1.000  C
  C135     1.0000 0.78365  0.11347  0.72128  Biso   1.000  C
  H105     1.0000 0.65889  0.12771  0.62792  Biso   1.000  H
  H106     1.0000 0.76260  0.15313  0.84501  Biso   1.000  H
  H107     1.0000 0.66256  0.17270  0.77670  Biso   1.000  H
  H108     1.0000 0.02794  0.06200  0.66691  Biso   1.000  H
  C136     1.0000 0.31549  0.32223  0.34919  Biso   1.000  C
  C137     1.0000 0.20273  0.28653  0.34455  Biso   1.000  C
  C138     1.0000 0.40653  0.27458  0.31942  Biso   1.000  C
  H109     1.0000 0.33380  0.33721  0.41011  Biso   1.000  H
  H110     1.0000 0.31195  0.36441  0.31177  Biso   1.000  H
  C139     1.0000 0.14572  0.28267  0.26250  Biso   1.000  C
  C140     1.0000 0.15502  0.25663  0.41730  Biso   1.000  C
  C141     1.0000 0.47118  0.23147  0.37621  Biso   1.000  C
  C142     1.0000 0.42445  0.27098  0.22998  Biso   1.000  C
  H111     1.0000 0.17804  0.30251  0.21297  Biso   1.000  H
  C143     1.0000 0.04292  0.25042  0.25216  Biso   1.000  C
  C144     1.0000 0.04962  0.22672  0.40526  Biso   1.000  C
  C145     1.0000 0.21496  0.25130  0.50714  Biso   1.000  C
  C146     1.0000 0.46252  0.23121  0.47521  Biso   1.000  C
  C147     1.0000 0.54709  0.18565  0.34199  Biso   1.000  C
  H112     1.0000 0.38347  0.30130  0.19118  Biso   1.000  H
  C148     1.0000 0.49954  0.22500  0.19570  Biso   1.000  C
  O19      1.0000 0.99884  0.24875  0.16652  Biso   1.000  O
  C149     1.0000 0.99232  0.22307  0.32380  Biso   1.000  C
  H113     1.0000 0.01556  0.20809  0.45473  Biso   1.000  H
  C150     1.0000 0.27510  0.18199  0.51970  Biso   1.000  C
  H114     1.0000 0.16052  0.25652  0.55280  Biso   1.000  H
  H115     1.0000 0.26927  0.28993  0.51427  Biso   1.000  H
  C151     1.0000 0.38900  0.17317  0.50707  Biso   1.000  C
  H116     1.0000 0.43255  0.27672  0.49353  Biso   1.000  H
  H117     1.0000 0.53772  0.22610  0.50347  Biso   1.000  H
  H118     1.0000 0.59112  0.15689  0.38060  Biso   1.000  H
  C152     1.0000 0.55979  0.18116  0.25242  Biso   1.000  C
  H119     1.0000 0.50937  0.22359  0.13459  Biso   1.000  H
  C153     1.0000 0.89378  0.21806  0.14983  Biso   1.000  C
  H120     1.0000 0.92070  0.20251  0.31772  Biso   1.000  H
  C154     1.0000 0.21287  0.12500  0.54449  Biso   1.000  C
  C155     1.0000 0.43524  0.10725  0.52336  Biso   1.000  C
  O20      1.0000 0.63551  0.13158  0.22743  Biso   1.000  O
  O21      1.0000 0.89048  0.14614  0.17070  Biso   1.000  O
  H121     1.0000 0.83899  0.24301  0.18418  Biso   1.000  H
  H122     1.0000 0.87138  0.22411  0.08709  Biso   1.000  H
  C156     1.0000 0.26036  0.05934  0.55738  Biso   1.000  C
  H123     1.0000 0.13601  0.13100  0.55280  Biso   1.000  H
  H124     1.0000 0.51248  0.10110  0.51701  Biso   1.000  H
  C157     1.0000 0.37320  0.05026  0.54855  Biso   1.000  C
  C158     1.0000 0.64161  0.11665  0.13701  Biso   1.000  C
  C159     1.0000 0.96611  0.10193  0.13347  Biso   1.000  C
  O22      1.0000 0.18594  0.00767  0.57826  Biso   1.000  O
  H125     1.0000 0.40723  0.00621  0.55941  Biso   1.000  H
  O23      1.0000 0.53962  0.09843  0.09481  Biso   1.000  O
  H126     1.0000 0.69463  0.07792  0.13020  Biso   1.000  H
  H127     1.0000 0.67132  0.15809  0.10763  Biso   1.000  H
  C160     1.0000 0.03196  0.11999  0.06562  Biso   1.000  C
  C161     1.0000 0.97120  0.03486  0.16795  Biso   1.000  C
  C162     1.0000 0.22265  0.93805  0.58853  Biso   1.000  C
  C163     1.0000 0.48520  0.03925  0.12255  Biso   1.000  C
  H128     1.0000 0.02550  0.16461  0.03880  Biso   1.000  H
  C164     1.0000 0.10797  0.07129  0.03769  Biso   1.000  C
  H129     1.0000 0.92280  0.02218  0.21232  Biso   1.000  H
  C165     1.0000 0.04606  0.98565  0.13890  Biso   1.000  C
  O24      1.0000 0.27133  0.91013  0.51414  Biso   1.000  O
  H130     1.0000 0.27759  0.93580  0.63891  Biso   1.000  H
  H131     1.0000 0.15886  0.90851  0.60260  Biso   1.000  H
  C166     1.0000 0.38648  0.02411  0.07596  Biso   1.000  C
  C167     1.0000 0.52165  0.99682  0.19210  Biso   1.000  C
  C168     1.0000 0.11918  0.00496  0.07465  Biso   1.000  C
  H132     1.0000 0.15411  0.08372  0.99169  Biso   1.000  H
  C169     1.0000 0.04326  0.91268  0.17810  Biso   1.000  C
  C170     1.0000 0.20945  0.90866  0.43477  Biso   1.000  C
  C171     1.0000 0.31971  0.96806  0.09873  Biso   1.000  C
  H133     1.0000 0.36363  0.05261  0.02741  Biso   1.000  H
  H134     1.0000 0.58981  0.00611  0.22383  Biso   1.000  H
  C172     1.0000 0.45590  0.94071  0.21395  Biso   1.000  C
  C173     1.0000 0.21103  0.95778  0.04456  Biso   1.000  C
  H135     1.0000 0.96500  0.89880  0.18398  Biso   1.000  H
  H136     1.0000 0.07643  0.87938  0.13753  Biso   1.000  H
  C174     1.0000 0.10488  0.90741  0.26701  Biso   1.000  C
  C175     1.0000 0.09829  0.92782  0.42437  Biso   1.000  C
  C176     1.0000 0.26644  0.88711  0.36339  Biso   1.000  C
  C177     1.0000 0.35435  0.92552  0.16959  Biso   1.000  C
  H137     1.0000 0.48088  0.91127  0.26099  Biso   1.000  H
  H138     1.0000 0.22352  0.96759  0.98227  Biso   1.000  H
  H139     1.0000 0.18741  0.90851  0.04907  Biso   1.000  H
  C178     1.0000 0.21646  0.88653  0.27866  Biso   1.000  C
  C179     1.0000 0.04837  0.92604  0.34062  Biso   1.000  C
  H140     1.0000 0.05797  0.94170  0.47311  Biso   1.000  H
  H141     1.0000 0.34123  0.87229  0.37209  Biso   1.000  H
  C180     1.0000 0.28668  0.86529  0.20342  Biso   1.000  C
  H142     1.0000 0.97209  0.93800  0.33310  Biso   1.000  H
  H143     1.0000 0.23752  0.84692  0.15500  Biso   1.000  H
  H144     1.0000 0.33755  0.82730  0.22331  Biso   1.000  H
