data_image0
_cell_length_a       11.966
_cell_length_b       12.944
_cell_length_c       21.641
_cell_angle_alpha    90
_cell_angle_beta     90.39
_cell_angle_gamma    90

_symmetry_space_group_name_H-M    "P 1"
_symmetry_int_tables_number       1

loop_
  _symmetry_equiv_pos_as_xyz
  'x, y, z'

loop_
  _atom_site_label
  _atom_site_occupancy
  _atom_site_fract_x
  _atom_site_fract_y
  _atom_site_fract_z
  _atom_site_thermal_displace_type
  _atom_site_B_iso_or_equiv
  _atom_site_type_symbol
  C1       1.0000 0.35266  0.23540  0.08766  Biso   1.000  C
  O1       1.0000 0.44328  0.23980  0.13068  Biso   1.000  O
  O2       1.0000 0.44319  0.23980  0.13073  Biso   1.000  O
  H1       1.0000 0.37443  0.19523  0.05069  Biso   1.000  H
  C2       1.0000 0.25628  0.18387  0.11987  Biso   1.000  C
  H2       1.0000 0.37435  0.19523  0.05074  Biso   1.000  H
  H3       1.0000 0.33135  0.30593  0.07431  Biso   1.000  H
  C3       1.0000 0.25628  0.18387  0.11991  Biso   1.000  C
  C4       1.0000 0.54332  0.27858  0.11081  Biso   1.000  C
  C5       1.0000 0.35274  0.23540  0.08761  Biso   1.000  C
  H4       1.0000 0.27791  0.11372  0.13202  Biso   1.000  H
  H5       1.0000 0.19175  0.18078  0.09182  Biso   1.000  H
  H6       1.0000 0.23668  0.22373  0.15674  Biso   1.000  H
  C6       1.0000 0.55832  0.32440  0.05323  Biso   1.000  C
  C7       1.0000 0.63266  0.27148  0.15221  Biso   1.000  C
  C8       1.0000 0.55824  0.32440  0.05323  Biso   1.000  C
  C9       1.0000 0.61758  0.22814  0.21668  Biso   1.000  C
  C10      1.0000 0.73573  0.31057  0.13429  Biso   1.000  C
  C11      1.0000 0.61758  0.22814  0.21672  Biso   1.000  C
  C12      1.0000 0.66132  0.36527  0.03609  Biso   1.000  C
  H7       1.0000 0.49722  0.32787  0.02509  Biso   1.000  H
  C13      1.0000 0.66123  0.36527  0.03609  Biso   1.000  C
  H8       1.0000 0.49713  0.32787  0.02514  Biso   1.000  H
  H9       1.0000 0.79750  0.30593  0.16201  Biso   1.000  H
  C14      1.0000 0.75090  0.35661  0.07680  Biso   1.000  C
  C15      1.0000 0.75090  0.35661  0.07685  Biso   1.000  C
  H10      1.0000 0.68740  0.24003  0.24038  Biso   1.000  H
  H11      1.0000 0.55749  0.26761  0.23729  Biso   1.000  H
  C16      1.0000 0.58912  0.11472  0.22042  Biso   1.000  C
  H12      1.0000 0.68740  0.24003  0.24043  Biso   1.000  H
  H13      1.0000 0.55749  0.26761  0.23733  Biso   1.000  H
  C17      1.0000 0.58904  0.11472  0.22042  Biso   1.000  C
  C18      1.0000 0.67192  0.42259  0.97440  Biso   1.000  C
  C19      1.0000 0.67184  0.42259  0.97440  Biso   1.000  C
  O3       1.0000 0.85172  0.39818  0.05869  Biso   1.000  O
  O4       1.0000 0.85163  0.39818  0.05873  Biso   1.000  O
  C20      1.0000 0.66912  0.03901  0.20868  Biso   1.000  C
  C21      1.0000 0.48262  0.08313  0.23784  Biso   1.000  C
  C22      1.0000 0.66904  0.03901  0.20873  Biso   1.000  C
  C23      1.0000 0.48254  0.08313  0.23789  Biso   1.000  C
  C24      1.0000 0.62353  0.36550  0.91992  Biso   1.000  C
  H14      1.0000 0.75214  0.43603  0.96659  Biso   1.000  H
  C25      1.0000 0.62345  0.36550  0.91996  Biso   1.000  C
  H15      1.0000 0.63394  0.49019  0.97791  Biso   1.000  H
  H16      1.0000 0.75205  0.43603  0.96664  Biso   1.000  H
  C26      1.0000 0.94557  0.38497  0.09967  Biso   1.000  C
  C27      1.0000 0.64230  0.93518  0.21548  Biso   1.000  C
  O5       1.0000 0.77219  0.07509  0.19061  Biso   1.000  O
  C28      1.0000 0.45570  0.97922  0.24389  Biso   1.000  C
  H17      1.0000 0.42706  0.13373  0.24579  Biso   1.000  H
  H18      1.0000 0.42706  0.13373  0.24584  Biso   1.000  H
  C29      1.0000 0.68822  0.29659  0.88637  Biso   1.000  C
  C30      1.0000 0.51340  0.37971  0.90083  Biso   1.000  C
  C31      1.0000 0.68814  0.29659  0.88637  Biso   1.000  C
  H19      1.0000 0.93102  0.42012  0.13941  Biso   1.000  H
  H20      1.0000 0.95762  0.31057  0.10799  Biso   1.000  H
  H21      1.0000 0.95754  0.31057  0.10804  Biso   1.000  H
  C32      1.0000 0.04650  0.42970  0.07038  Biso   1.000  C
  H22      1.0000 0.69786  0.88450  0.20790  Biso   1.000  H
  H23      1.0000 0.69786  0.88450  0.20794  Biso   1.000  H
  C33      1.0000 0.53621  0.90382  0.23308  Biso   1.000  C
  C34      1.0000 0.85935  0.00039  0.18331  Biso   1.000  C
  O6       1.0000 0.35211  0.94337  0.26058  Biso   1.000  O
  O7       1.0000 0.35203  0.94337  0.26062  Biso   1.000  O
  O8       1.0000 0.79612  0.28368  0.90767  Biso   1.000  O
  C35      1.0000 0.64463  0.24737  0.83471  Biso   1.000  C
  C36      1.0000 0.64455  0.24737  0.83475  Biso   1.000  C
  H24      1.0000 0.46771  0.42676  0.92292  Biso   1.000  H
  C37      1.0000 0.46833  0.32749  0.85074  Biso   1.000  C
  C38      1.0000 0.46824  0.32749  0.85074  Biso   1.000  C
  H25      1.0000 0.06232  0.39254  0.03198  Biso   1.000  H
  H26      1.0000 0.06224  0.39254  0.03202  Biso   1.000  H
  H27      1.0000 0.11036  0.42321  0.09870  Biso   1.000  H
  H28      1.0000 0.03326  0.50278  0.06114  Biso   1.000  H
  C39      1.0000 0.50941  0.79071  0.24172  Biso   1.000  C
  C40      1.0000 0.50941  0.79071  0.24177  Biso   1.000  C
  C41      1.0000 0.96187  0.05570  0.16150  Biso   1.000  C
  H29      1.0000 0.83649  0.94739  0.15272  Biso   1.000  H
  H30      1.0000 0.87480  0.96547  0.22319  Biso   1.000  H
  H31      1.0000 0.87480  0.96547  0.22324  Biso   1.000  H
  C42      1.0000 0.26867  0.01599  0.27749  Biso   1.000  C
  C43      1.0000 0.26867  0.01599  0.27754  Biso   1.000  C
  C44      1.0000 0.86766  0.21693  0.87394  Biso   1.000  C
  C45      1.0000 0.86766  0.21693  0.87399  Biso   1.000  C
  H32      1.0000 0.69123  0.20233  0.81170  Biso   1.000  H
  C46      1.0000 0.53467  0.26197  0.81562  Biso   1.000  C
  H33      1.0000 0.69115  0.20233  0.81174  Biso   1.000  H
  O9       1.0000 0.35918  0.33792  0.83032  Biso   1.000  O
  H34      1.0000 0.45333  0.78392  0.27490  Biso   1.000  H
  H35      1.0000 0.57803  0.75448  0.25559  Biso   1.000  H
  C47      1.0000 0.46533  0.73803  0.18442  Biso   1.000  C
  H36      1.0000 0.45324  0.78392  0.27490  Biso   1.000  H
  H37      1.0000 0.57794  0.75448  0.25563  Biso   1.000  H
  C48      1.0000 0.46525  0.73803  0.18442  Biso   1.000  C
  H38      1.0000 0.99128  0.09927  0.19491  Biso   1.000  H
  H39      1.0000 0.94280  0.09889  0.12583  Biso   1.000  H
  H40      1.0000 0.01872  0.00502  0.14958  Biso   1.000  H
  H41      1.0000 0.01864  0.00502  0.14963  Biso   1.000  H
  H42      1.0000 0.29311  0.05547  0.31441  Biso   1.000  H
  C49      1.0000 0.16496  0.95689  0.29121  Biso   1.000  C
  H43      1.0000 0.25504  0.06520  0.24320  Biso   1.000  H
  H44      1.0000 0.87013  0.23756  0.82999  Biso   1.000  H
  C50      1.0000 0.98067  0.22659  0.90301  Biso   1.000  C
  H45      1.0000 0.87005  0.23756  0.83004  Biso   1.000  H
  H46      1.0000 0.84087  0.14462  0.87653  Biso   1.000  H
  C51      1.0000 0.49059  0.20929  0.75828  Biso   1.000  C
  C52      1.0000 0.28119  0.38914  0.86909  Biso   1.000  C
  C53      1.0000 0.28119  0.38914  0.86913  Biso   1.000  C
  C54      1.0000 0.35537  0.75263  0.16529  Biso   1.000  C
  C55      1.0000 0.53167  0.67251  0.14930  Biso   1.000  C
  H47      1.0000 0.10629  0.00471  0.30452  Biso   1.000  H
  H48      1.0000 0.14010  0.92019  0.25401  Biso   1.000  H
  H49      1.0000 0.18016  0.90691  0.32421  Biso   1.000  H
  H50      1.0000 0.97852  0.19994  0.94529  Biso   1.000  H
  H51      1.0000 0.97843  0.19994  0.94533  Biso   1.000  H
  H52      1.0000 0.03503  0.18688  0.87898  Biso   1.000  H
  H53      1.0000 0.00291  0.29952  0.90384  Biso   1.000  H
  H54      1.0000 0.03495  0.18688  0.87902  Biso   1.000  H
  H55      1.0000 0.42197  0.24552  0.74441  Biso   1.000  H
  C56      1.0000 0.46379  0.09618  0.76696  Biso   1.000  C
  H56      1.0000 0.54667  0.21608  0.72514  Biso   1.000  H
  H57      1.0000 0.21203  0.40281  0.84520  Biso   1.000  H
  C57      1.0000 0.25271  0.32903  0.92482  Biso   1.000  C
  H58      1.0000 0.21195  0.40281  0.84524  Biso   1.000  H
  H59      1.0000 0.31277  0.45650  0.88193  Biso   1.000  H
  H60      1.0000 0.30877  0.79767  0.18830  Biso   1.000  H
  C58      1.0000 0.31178  0.70341  0.11368  Biso   1.000  C
  O10      1.0000 0.64073  0.66208  0.16973  Biso   1.000  O
  C59      1.0000 0.48660  0.62029  0.09921  Biso   1.000  C
  C60      1.0000 0.35770  0.06482  0.78452  Biso   1.000  C
  C61      1.0000 0.54430  0.02078  0.75615  Biso   1.000  C
  C62      1.0000 0.35770  0.06482  0.78457  Biso   1.000  C
  H61      1.0000 0.22607  0.26028  0.91262  Biso   1.000  H
  H62      1.0000 0.31931  0.32193  0.95120  Biso   1.000  H
  H63      1.0000 0.19399  0.36488  0.94774  Biso   1.000  H
  O11      1.0000 0.20388  0.71632  0.09233  Biso   1.000  O
  C63      1.0000 0.37647  0.63450  0.08008  Biso   1.000  C
  O12      1.0000 0.20388  0.71632  0.09237  Biso   1.000  O
  C64      1.0000 0.71881  0.61086  0.13091  Biso   1.000  C
  H64      1.0000 0.53229  0.57324  0.07708  Biso   1.000  H
  H65      1.0000 0.53229  0.57324  0.07712  Biso   1.000  H
  C65      1.0000 0.33088  0.96099  0.79132  Biso   1.000  C
  H66      1.0000 0.30205  0.11550  0.79210  Biso   1.000  H
  C66      1.0000 0.51738  0.91687  0.76216  Biso   1.000  C
  O13      1.0000 0.64789  0.05663  0.73942  Biso   1.000  O
  C67      1.0000 0.13226  0.78307  0.12606  Biso   1.000  C
  C68      1.0000 0.32808  0.57741  0.02560  Biso   1.000  C
  C69      1.0000 0.32808  0.57741  0.02565  Biso   1.000  C
  H67      1.0000 0.78797  0.59719  0.15480  Biso   1.000  H
  H68      1.0000 0.68715  0.54350  0.11811  Biso   1.000  H
  C70      1.0000 0.74729  0.67097  0.07523  Biso   1.000  C
  O14      1.0000 0.22772  0.92491  0.80939  Biso   1.000  O
  O15      1.0000 0.22772  0.92491  0.80943  Biso   1.000  O
  C71      1.0000 0.41088  0.88528  0.77963  Biso   1.000  C
  H69      1.0000 0.57294  0.86627  0.75421  Biso   1.000  H
  H70      1.0000 0.57286  0.86627  0.75421  Biso   1.000  H
  C72      1.0000 0.73125  0.98401  0.72251  Biso   1.000  C
  H71      1.0000 0.12987  0.76244  0.17001  Biso   1.000  H
  C73      1.0000 0.01933  0.77341  0.09699  Biso   1.000  C
  H72      1.0000 0.15905  0.85538  0.12352  Biso   1.000  H
  C74      1.0000 0.01925  0.77341  0.09704  Biso   1.000  C
  C75      1.0000 0.33868  0.63473  0.96391  Biso   1.000  C
  C76      1.0000 0.33868  0.63473  0.96396  Biso   1.000  C
  H73      1.0000 0.36597  0.50981  0.02209  Biso   1.000  H
  H74      1.0000 0.24786  0.56397  0.03341  Biso   1.000  H
  H75      1.0000 0.36598  0.50981  0.02213  Biso   1.000  H
  H76      1.0000 0.77393  0.73972  0.08738  Biso   1.000  H
  H77      1.0000 0.80601  0.63512  0.05231  Biso   1.000  H
  H78      1.0000 0.77385  0.73972  0.08743  Biso   1.000  H
  H79      1.0000 0.68069  0.67807  0.04884  Biso   1.000  H
  C77      1.0000 0.14057  0.99961  0.81673  Biso   1.000  C
  C78      1.0000 0.38234  0.77186  0.78332  Biso   1.000  C
  H80      1.0000 0.74488  0.93480  0.75680  Biso   1.000  H
  H81      1.0000 0.70689  0.94453  0.68559  Biso   1.000  H
  H82      1.0000 0.74488  0.93480  0.75684  Biso   1.000  H
  H83      1.0000 0.70689  0.94453  0.68564  Biso   1.000  H
  C79      1.0000 0.83504  0.04311  0.70879  Biso   1.000  C
  C80      1.0000 0.83496  0.04311  0.70883  Biso   1.000  C
  H84      1.0000 0.99709  0.70048  0.09621  Biso   1.000  H
  H85      1.0000 0.96497  0.81312  0.12102  Biso   1.000  H
  H86      1.0000 0.02148  0.80006  0.05471  Biso   1.000  H
  C81      1.0000 0.24910  0.64339  0.92320  Biso   1.000  C
  C82      1.0000 0.44168  0.67560  0.94681  Biso   1.000  C
  C83      1.0000 0.03813  0.94430  0.83850  Biso   1.000  C
  C84      1.0000 0.03804  0.94430  0.83854  Biso   1.000  C
  H87      1.0000 0.16351  0.05261  0.84728  Biso   1.000  H
  H88      1.0000 0.12520  0.03453  0.77681  Biso   1.000  H
  H89      1.0000 0.16351  0.05261  0.84732  Biso   1.000  H
  C85      1.0000 0.36734  0.72852  0.84783  Biso   1.000  C
  H90      1.0000 0.31260  0.75997  0.75962  Biso   1.000  H
  H91      1.0000 0.44251  0.73239  0.76271  Biso   1.000  H
  C86      1.0000 0.36726  0.72852  0.84783  Biso   1.000  C
  H92      1.0000 0.89371  0.99529  0.69552  Biso   1.000  H
  H93      1.0000 0.81976  0.09309  0.67579  Biso   1.000  H
  H94      1.0000 0.85990  0.07981  0.74603  Biso   1.000  H
  H95      1.0000 0.81976  0.09309  0.67584  Biso   1.000  H
  O16      1.0000 0.14828  0.60182  0.94131  Biso   1.000  O
  C87      1.0000 0.26418  0.68943  0.86571  Biso   1.000  C
  C88      1.0000 0.26418  0.68943  0.86576  Biso   1.000  C
  C89      1.0000 0.45668  0.72142  0.88919  Biso   1.000  C
  H96      1.0000 0.50278  0.67213  0.97491  Biso   1.000  H
  C90      1.0000 0.45668  0.72142  0.88924  Biso   1.000  C
  H97      1.0000 0.98128  0.99498  0.85042  Biso   1.000  H
  H98      1.0000 0.05720  0.90111  0.87422  Biso   1.000  H
  H99      1.0000 0.00872  0.90073  0.80509  Biso   1.000  H
  H100     1.0000 0.00872  0.90073  0.80513  Biso   1.000  H
  C91      1.0000 0.05443  0.61503  0.90037  Biso   1.000  C
  C92      1.0000 0.05435  0.61503  0.90037  Biso   1.000  C
  H101     1.0000 0.20250  0.69407  0.83804  Biso   1.000  H
  O17      1.0000 0.55672  0.76020  0.86932  Biso   1.000  O
  C93      1.0000 0.95350  0.57030  0.92967  Biso   1.000  C
  H102     1.0000 0.04238  0.68943  0.89201  Biso   1.000  H
  H103     1.0000 0.06898  0.57988  0.86063  Biso   1.000  H
  C94      1.0000 0.64726  0.76460  0.91239  Biso   1.000  C
  H104     1.0000 0.93768  0.60746  0.96802  Biso   1.000  H
  H105     1.0000 0.88956  0.57679  0.90130  Biso   1.000  H
  H106     1.0000 0.96674  0.49722  0.93891  Biso   1.000  H
  H107     1.0000 0.88956  0.57679  0.90134  Biso   1.000  H
  H108     1.0000 0.96666  0.49722  0.93891  Biso   1.000  H
  H109     1.0000 0.62557  0.80477  0.94931  Biso   1.000  H
  H110     1.0000 0.66857  0.69407  0.92569  Biso   1.000  H
  H111     1.0000 0.66857  0.69407  0.92574  Biso   1.000  H
  C95      1.0000 0.74364  0.81613  0.88013  Biso   1.000  C
  H112     1.0000 0.72209  0.88628  0.86798  Biso   1.000  H
  H113     1.0000 0.80816  0.81922  0.90818  Biso   1.000  H
  H114     1.0000 0.72209  0.88628  0.86803  Biso   1.000  H
  H115     1.0000 0.80816  0.81922  0.90823  Biso   1.000  H
  H116     1.0000 0.76324  0.77627  0.84330  Biso   1.000  H
  C96      1.0000 0.33501  0.45689  0.20878  Biso   1.000  C
  C97      1.0000 0.23130  0.51599  0.22250  Biso   1.000  C
  H117     1.0000 0.35987  0.42019  0.24602  Biso   1.000  H
  H118     1.0000 0.39368  0.50471  0.19551  Biso   1.000  H
  H119     1.0000 0.31981  0.40691  0.17578  Biso   1.000  H
  O18      1.0000 0.14794  0.44337  0.23941  Biso   1.000  O
  H120     1.0000 0.24493  0.56520  0.25679  Biso   1.000  H
  H121     1.0000 0.20686  0.55547  0.18558  Biso   1.000  H
  C98      1.0000 0.04427  0.47922  0.25614  Biso   1.000  C
  C99      1.0000 0.96384  0.40382  0.26695  Biso   1.000  C
  C100     1.0000 0.01743  0.58313  0.26215  Biso   1.000  C
  C101     1.0000 0.99056  0.29071  0.25827  Biso   1.000  C
  C102     1.0000 0.85767  0.43518  0.28456  Biso   1.000  C
  H122     1.0000 0.07291  0.63373  0.25420  Biso   1.000  H
  C103     1.0000 0.91093  0.61472  0.27961  Biso   1.000  C
  C104     1.0000 0.03472  0.23803  0.31561  Biso   1.000  C
  H123     1.0000 0.04673  0.28392  0.22509  Biso   1.000  H
  H124     1.0000 0.92203  0.25448  0.24440  Biso   1.000  H
  C105     1.0000 0.83093  0.53901  0.29131  Biso   1.000  C
  H125     1.0000 0.80211  0.38450  0.29209  Biso   1.000  H
  C106     1.0000 0.88239  0.72814  0.28331  Biso   1.000  C
  C107     1.0000 0.14460  0.25263  0.33474  Biso   1.000  C
  C108     1.0000 0.96830  0.17251  0.35073  Biso   1.000  C
  O19      1.0000 0.72778  0.57509  0.30942  Biso   1.000  O
  C109     1.0000 0.86731  0.77148  0.34782  Biso   1.000  C
  H126     1.0000 0.81257  0.74003  0.25961  Biso   1.000  H
  H127     1.0000 0.94248  0.76761  0.26270  Biso   1.000  H
  H128     1.0000 0.19120  0.29767  0.31168  Biso   1.000  H
  C110     1.0000 0.18819  0.20341  0.38636  Biso   1.000  C
  C111     1.0000 0.01337  0.12029  0.40082  Biso   1.000  C
  O20      1.0000 0.85924  0.16208  0.33031  Biso   1.000  O
  C112     1.0000 0.64062  0.50039  0.31672  Biso   1.000  C
  C113     1.0000 0.76424  0.81057  0.36575  Biso   1.000  C
  C114     1.0000 0.95674  0.77858  0.38922  Biso   1.000  C
  O21      1.0000 0.29609  0.21632  0.40766  Biso   1.000  O
  C115     1.0000 0.12350  0.13450  0.41991  Biso   1.000  C
  H129     1.0000 0.96768  0.07324  0.42291  Biso   1.000  H
  C116     1.0000 0.78116  0.11086  0.36908  Biso   1.000  C
  H130     1.0000 0.66348  0.44739  0.34731  Biso   1.000  H
  H131     1.0000 0.62517  0.46547  0.27680  Biso   1.000  H
  C117     1.0000 0.53810  0.55570  0.33849  Biso   1.000  C
  C118     1.0000 0.74907  0.85661  0.42319  Biso   1.000  C
  H132     1.0000 0.70247  0.80593  0.33798  Biso   1.000  H
  O22      1.0000 0.05678  0.73980  0.36931  Biso   1.000  O
  C119     1.0000 0.94174  0.82440  0.44675  Biso   1.000  C
  C120     1.0000 0.36772  0.28307  0.37397  Biso   1.000  C
  C121     1.0000 0.17189  0.07741  0.47439  Biso   1.000  C
  H133     1.0000 0.71200  0.09719  0.34519  Biso   1.000  H
  H134     1.0000 0.81282  0.04350  0.38192  Biso   1.000  H
  C122     1.0000 0.75268  0.17097  0.42481  Biso   1.000  C
  H135     1.0000 0.55717  0.59889  0.37421  Biso   1.000  H
  H136     1.0000 0.48133  0.50502  0.35041  Biso   1.000  H
  H137     1.0000 0.50869  0.59927  0.30512  Biso   1.000  H
  O23      1.0000 0.64834  0.89818  0.44130  Biso   1.000  O
  C123     1.0000 0.83874  0.86527  0.46394  Biso   1.000  C
  C124     1.0000 0.14731  0.73540  0.41237  Biso   1.000  C
  H138     1.0000 0.00284  0.82787  0.47490  Biso   1.000  H
  H139     1.0000 0.37010  0.26244  0.32998  Biso   1.000  H
  H140     1.0000 0.34092  0.35538  0.37652  Biso   1.000  H
  C125     1.0000 0.48073  0.27341  0.40299  Biso   1.000  C
  H141     1.0000 0.13400  0.00981  0.47790  Biso   1.000  H
  H142     1.0000 0.25211  0.06397  0.46658  Biso   1.000  H
  C126     1.0000 0.16129  0.13473  0.53608  Biso   1.000  C
  H143     1.0000 0.72612  0.23972  0.41261  Biso   1.000  H
  H144     1.0000 0.69396  0.13512  0.44768  Biso   1.000  H
  H145     1.0000 0.81928  0.17807  0.45119  Biso   1.000  H
  C127     1.0000 0.55440  0.88497  0.40036  Biso   1.000  C
  C128     1.0000 0.82813  0.92259  0.52559  Biso   1.000  C
  H146     1.0000 0.12562  0.69523  0.44930  Biso   1.000  H
  H147     1.0000 0.16862  0.80593  0.42568  Biso   1.000  H
  C129     1.0000 0.24369  0.68387  0.38012  Biso   1.000  C
  H148     1.0000 0.50288  0.20048  0.40378  Biso   1.000  H
  H149     1.0000 0.53500  0.31312  0.37901  Biso   1.000  H
  H150     1.0000 0.47849  0.30006  0.44532  Biso   1.000  H
  C130     1.0000 0.25087  0.14339  0.57679  Biso   1.000  C
  C131     1.0000 0.05829  0.17560  0.55322  Biso   1.000  C
  H151     1.0000 0.54243  0.81057  0.39200  Biso   1.000  H
  H152     1.0000 0.56904  0.92012  0.36062  Biso   1.000  H
  C132     1.0000 0.45348  0.92970  0.42966  Biso   1.000  C
  C133     1.0000 0.87652  0.86550  0.58007  Biso   1.000  C
  H153     1.0000 0.86603  0.99019  0.52212  Biso   1.000  H
  H154     1.0000 0.74792  0.93603  0.53340  Biso   1.000  H
  H155     1.0000 0.22206  0.61372  0.36801  Biso   1.000  H
  H156     1.0000 0.30822  0.68078  0.40822  Biso   1.000  H
  H157     1.0000 0.26329  0.72373  0.34329  Biso   1.000  H
  O24      1.0000 0.35169  0.10182  0.55872  Biso   1.000  O
  C134     1.0000 0.23579  0.18943  0.63427  Biso   1.000  C
  C135     1.0000 0.04329  0.22142  0.61080  Biso   1.000  C
  H158     1.0000 0.99719  0.17213  0.52508  Biso   1.000  H
  H159     1.0000 0.43774  0.89254  0.46801  Biso   1.000  H
  H160     1.0000 0.38961  0.92321  0.40128  Biso   1.000  H
  H161     1.0000 0.46671  0.00278  0.43890  Biso   1.000  H
  C136     1.0000 0.81183  0.79659  0.61362  Biso   1.000  C
  C137     1.0000 0.98657  0.87971  0.59920  Biso   1.000  C
  C138     1.0000 0.44562  0.11503  0.59962  Biso   1.000  C
  H162     1.0000 0.29747  0.19407  0.66200  Biso   1.000  H
  C139     1.0000 0.13272  0.22852  0.65220  Biso   1.000  C
  O25      1.0000 0.94325  0.26020  0.63067  Biso   1.000  O
  O26      1.0000 0.70385  0.78368  0.59232  Biso   1.000  O
  C140     1.0000 0.85542  0.74737  0.66528  Biso   1.000  C
  H163     1.0000 0.03226  0.92676  0.57711  Biso   1.000  H
  C141     1.0000 0.03173  0.82749  0.64925  Biso   1.000  C
  H164     1.0000 0.45759  0.18943  0.60798  Biso   1.000  H
  H165     1.0000 0.43099  0.07988  0.63940  Biso   1.000  H
  C142     1.0000 0.54647  0.07030  0.57037  Biso   1.000  C
  C143     1.0000 0.11763  0.27186  0.71671  Biso   1.000  C
  C144     1.0000 0.85271  0.26460  0.58760  Biso   1.000  C
  C145     1.0000 0.63231  0.71693  0.62605  Biso   1.000  C
  C146     1.0000 0.96530  0.76197  0.68441  Biso   1.000  C
  H166     1.0000 0.80882  0.70233  0.68829  Biso   1.000  H
  O27      1.0000 0.14079  0.83792  0.66972  Biso   1.000  O
  H167     1.0000 0.56229  0.10746  0.53201  Biso   1.000  H
  H168     1.0000 0.61041  0.07679  0.59869  Biso   1.000  H
  H169     1.0000 0.53332  0.99722  0.56108  Biso   1.000  H
  H170     1.0000 0.18737  0.25997  0.74042  Biso   1.000  H
  H171     1.0000 0.05746  0.23239  0.73732  Biso   1.000  H
  C147     1.0000 0.08910  0.38528  0.72041  Biso   1.000  C
  H172     1.0000 0.87440  0.30477  0.55068  Biso   1.000  H
  H173     1.0000 0.83141  0.19407  0.57429  Biso   1.000  H
  C148     1.0000 0.75634  0.31613  0.61986  Biso   1.000  C
  H174     1.0000 0.62993  0.73756  0.66999  Biso   1.000  H
  H175     1.0000 0.65910  0.64462  0.62351  Biso   1.000  H
  C149     1.0000 0.51930  0.72659  0.59698  Biso   1.000  C
  C150     1.0000 0.00938  0.70929  0.74171  Biso   1.000  C
  C151     1.0000 0.21878  0.88914  0.63090  Biso   1.000  C
  C152     1.0000 0.16910  0.46099  0.70872  Biso   1.000  C
  C153     1.0000 0.98259  0.41687  0.73788  Biso   1.000  C
  H176     1.0000 0.77788  0.38628  0.63201  Biso   1.000  H
  H177     1.0000 0.69181  0.31922  0.59181  Biso   1.000  H
  H178     1.0000 0.73673  0.27627  0.65669  Biso   1.000  H
  H179     1.0000 0.49706  0.79952  0.59620  Biso   1.000  H
  H180     1.0000 0.46502  0.68688  0.62101  Biso   1.000  H
  H181     1.0000 0.52154  0.69994  0.55470  Biso   1.000  H
  C154     1.0000 0.03618  0.59618  0.73307  Biso   1.000  C
  H182     1.0000 0.07800  0.74552  0.75562  Biso   1.000  H
  H183     1.0000 0.95330  0.71608  0.77489  Biso   1.000  H
  H184     1.0000 0.28802  0.90281  0.65479  Biso   1.000  H
  H185     1.0000 0.18720  0.95650  0.61810  Biso   1.000  H
  C155     1.0000 0.24726  0.82903  0.57522  Biso   1.000  C
  O28      1.0000 0.27225  0.42491  0.69060  Biso   1.000  O
  C156     1.0000 0.14227  0.56482  0.71546  Biso   1.000  C
  C157     1.0000 0.95567  0.52078  0.74384  Biso   1.000  C
  H186     1.0000 0.92711  0.36627  0.74578  Biso   1.000  H
  H187     1.0000 0.27390  0.76028  0.58742  Biso   1.000  H
  H188     1.0000 0.30598  0.86488  0.55230  Biso   1.000  H
  H189     1.0000 0.18067  0.82193  0.54879  Biso   1.000  H
  C158     1.0000 0.35941  0.49961  0.68330  Biso   1.000  C
  H190     1.0000 0.19792  0.61550  0.70789  Biso   1.000  H
  O29      1.0000 0.85208  0.55663  0.76061  Biso   1.000  O
  H191     1.0000 0.33647  0.55261  0.65271  Biso   1.000  H
  H192     1.0000 0.37477  0.53453  0.72318  Biso   1.000  H
  C159     1.0000 0.46193  0.44430  0.66149  Biso   1.000  C
  C160     1.0000 0.76872  0.48401  0.77748  Biso   1.000  C
  H193     1.0000 0.44277  0.40111  0.62582  Biso   1.000  H
  H194     1.0000 0.51869  0.49498  0.64962  Biso   1.000  H
  H195     1.0000 0.49134  0.40073  0.69490  Biso   1.000  H
  H196     1.0000 0.75510  0.43480  0.74319  Biso   1.000  H
  H197     1.0000 0.79308  0.44453  0.81440  Biso   1.000  H
  C161     1.0000 0.66501  0.54311  0.79120  Biso   1.000  C
  H198     1.0000 0.64007  0.57981  0.75400  Biso   1.000  H
  H199     1.0000 0.60626  0.49529  0.80451  Biso   1.000  H
  H200     1.0000 0.68021  0.59309  0.82420  Biso   1.000  H
