data_image0
_cell_length_a       15.657
_cell_length_b       20.034
_cell_length_c       26.302
_cell_angle_alpha    90
_cell_angle_beta     90
_cell_angle_gamma    90

_symmetry_space_group_name_H-M    "P 1"
_symmetry_int_tables_number       1

loop_
  _symmetry_equiv_pos_as_xyz
  'x, y, z'

loop_
  _atom_site_label
  _atom_site_occupancy
  _atom_site_fract_x
  _atom_site_fract_y
  _atom_site_fract_z
  _atom_site_thermal_displace_type
  _atom_site_B_iso_or_equiv
  _atom_site_type_symbol
  C1       1.0000 0.52922  0.57028  0.47331  Biso   1.000  C
  C2       1.0000 0.47768  0.62199  0.49498  Biso   1.000  C
  C3       1.0000 0.61870  0.57472  0.47479  Biso   1.000  C
  H1       1.0000 0.50271  0.53279  0.45791  Biso   1.000  H
  C4       1.0000 0.38973  0.60882  0.51331  Biso   1.000  C
  C5       1.0000 0.52232  0.68169  0.50741  Biso   1.000  C
  C6       1.0000 0.66002  0.62988  0.49688  Biso   1.000  C
  H2       1.0000 0.65198  0.53968  0.46050  Biso   1.000  H
  C7       1.0000 0.36718  0.54602  0.53129  Biso   1.000  C
  C8       1.0000 0.33001  0.65998  0.52369  Biso   1.000  C
  H3       1.0000 0.49020  0.72038  0.51570  Biso   1.000  H
  C9       1.0000 0.61123  0.68568  0.50779  Biso   1.000  C
  C10      1.0000 0.75040  0.62269  0.51840  Biso   1.000  C
  H4       1.0000 0.40301  0.50918  0.52312  Biso   1.000  H
  C11      1.0000 0.29393  0.53409  0.56110  Biso   1.000  C
  C12      1.0000 0.25458  0.65039  0.55391  Biso   1.000  C
  H5       1.0000 0.34042  0.70310  0.51011  Biso   1.000  H
  H6       1.0000 0.63837  0.72691  0.51551  Biso   1.000  H
  C13      1.0000 0.79198  0.55610  0.51798  Biso   1.000  C
  C14      1.0000 0.78719  0.67400  0.55041  Biso   1.000  C
  C15      1.0000 0.23740  0.58720  0.57471  Biso   1.000  C
  H7       1.0000 0.28179  0.49002  0.57231  Biso   1.000  H
  H8       1.0000 0.21652  0.68648  0.55962  Biso   1.000  H
  C16      1.0000 0.85879  0.54398  0.55201  Biso   1.000  C
  H9       1.0000 0.77358  0.52241  0.49498  Biso   1.000  H
  H10      1.0000 0.76349  0.71768  0.54962  Biso   1.000  H
  C17      1.0000 0.85738  0.66088  0.58281  Biso   1.000  C
  C18      1.0000 0.16989  0.57662  0.61588  Biso   1.000  C
  C19      1.0000 0.88101  0.47280  0.56969  Biso   1.000  C
  C20      1.0000 0.89640  0.59549  0.58231  Biso   1.000  C
  C21      1.0000 0.87303  0.70660  0.62668  Biso   1.000  C
  C22      1.0000 0.12799  0.63168  0.63969  Biso   1.000  C
  C23      1.0000 0.16101  0.51522  0.63961  Biso   1.000  C
  C24      1.0000 0.94922  0.45732  0.59969  Biso   1.000  C
  C25      1.0000 0.81829  0.42418  0.56239  Biso   1.000  C
  H11      1.0000 0.94629  0.58690  0.60182  Biso   1.000  H
  C26      1.0000 0.88542  0.67660  0.67550  Biso   1.000  C
  C27      1.0000 0.85962  0.77299  0.62391  Biso   1.000  C
  C28      1.0000 0.08750  0.62698  0.68630  Biso   1.000  C
  H12      1.0000 0.12793  0.67360  0.62269  Biso   1.000  H
  H13      1.0000 0.18471  0.47659  0.62398  Biso   1.000  H
  C29      1.0000 0.11739  0.50849  0.68691  Biso   1.000  C
  C30      1.0000 0.94648  0.40082  0.63189  Biso   1.000  C
  H14      1.0000 0.99872  0.48468  0.59889  Biso   1.000  H
  H15      1.0000 0.77652  0.42982  0.53661  Biso   1.000  H
  C31      1.0000 0.81701  0.36498  0.59440  Biso   1.000  C
  C32      1.0000 0.88248  0.71578  0.72101  Biso   1.000  C
  H16      1.0000 0.89570  0.62998  0.67778  Biso   1.000  H
  H17      1.0000 0.85400  0.79360  0.59151  Biso   1.000  H
  C33      1.0000 0.85329  0.81541  0.67170  Biso   1.000  C
  C34      1.0000 0.08750  0.56549  0.71249  Biso   1.000  C
  H18      1.0000 0.05978  0.66482  0.70059  Biso   1.000  H
  H19      1.0000 0.10839  0.46551  0.70109  Biso   1.000  H
  C35      1.0000 0.87833  0.35699  0.63360  Biso   1.000  C
  H20      1.0000 0.99412  0.39258  0.65341  Biso   1.000  H
  H21      1.0000 0.77499  0.33159  0.58900  Biso   1.000  H
  C36      1.0000 0.85859  0.78551  0.71831  Biso   1.000  C
  H22      1.0000 0.89628  0.69622  0.75279  Biso   1.000  H
  H23      1.0000 0.84569  0.86228  0.66919  Biso   1.000  H
  C37      1.0000 0.07089  0.56209  0.77120  Biso   1.000  C
  C38      1.0000 0.85853  0.31402  0.67961  Biso   1.000  C
  C39      1.0000 0.82960  0.81901  0.76622  Biso   1.000  C
  C40      1.0000 0.09191  0.61780  0.80059  Biso   1.000  C
  C41      1.0000 0.05620  0.50030  0.79701  Biso   1.000  C
  C42      1.0000 0.89608  0.32210  0.72451  Biso   1.000  C
  C43      1.0000 0.78259  0.27339  0.67809  Biso   1.000  C
  C44      1.0000 0.86421  0.79999  0.81249  Biso   1.000  C
  C45      1.0000 0.75200  0.85599  0.76701  Biso   1.000  C
  C46      1.0000 0.11362  0.60981  0.84929  Biso   1.000  C
  H24      1.0000 0.09082  0.66118  0.78599  Biso   1.000  H
  H25      1.0000 0.03002  0.46421  0.77948  Biso   1.000  H
  C47      1.0000 0.07977  0.49311  0.84670  Biso   1.000  C
  C48      1.0000 0.86249  0.30219  0.77021  Biso   1.000  C
  H26      1.0000 0.95031  0.34342  0.72489  Biso   1.000  H
  H27      1.0000 0.75749  0.26161  0.64649  Biso   1.000  H
  C49      1.0000 0.74638  0.25162  0.72401  Biso   1.000  C
  C50      1.0000 0.82059  0.81212  0.85879  Biso   1.000  C
  H28      1.0000 0.91818  0.77828  0.81321  Biso   1.000  H
  H29      1.0000 0.72919  0.87292  0.73610  Biso   1.000  H
  C51      1.0000 0.70901  0.86772  0.81271  Biso   1.000  C
  C52      1.0000 0.11822  0.54902  0.87560  Biso   1.000  C
  H30      1.0000 0.12729  0.64900  0.86792  Biso   1.000  H
  H31      1.0000 0.07147  0.45128  0.86309  Biso   1.000  H
  C53      1.0000 0.78067  0.26979  0.77241  Biso   1.000  C
  H32      1.0000 0.89359  0.30992  0.80070  Biso   1.000  H
  H33      1.0000 0.69739  0.22382  0.72280  Biso   1.000  H
  C54      1.0000 0.73922  0.84222  0.85952  Biso   1.000  C
  H34      1.0000 0.84678  0.79969  0.89001  Biso   1.000  H
  H35      1.0000 0.65798  0.89338  0.81230  Biso   1.000  H
  C55      1.0000 0.17909  0.53569  0.91712  Biso   1.000  C
  C56      1.0000 0.72428  0.26660  0.81819  Biso   1.000  C
  C57      1.0000 0.67950  0.83648  0.90419  Biso   1.000  C
  C58      1.0000 0.22929  0.47529  0.91849  Biso   1.000  C
  C59      1.0000 0.20879  0.58970  0.94761  Biso   1.000  C
  C60      1.0000 0.73169  0.31591  0.85781  Biso   1.000  C
  C61      1.0000 0.64802  0.22572  0.82032  Biso   1.000  C
  C62      1.0000 0.68787  0.77668  0.93651  Biso   1.000  C
  C63      1.0000 0.60478  0.87312  0.91069  Biso   1.000  C
  C64      1.0000 0.30338  0.47020  0.94578  Biso   1.000  C
  H36      1.0000 0.21013  0.43761  0.89982  Biso   1.000  H
  H37      1.0000 0.17321  0.62768  0.95171  Biso   1.000  H
  C65      1.0000 0.29067  0.58890  0.97270  Biso   1.000  C
  C66      1.0000 0.66418  0.32999  0.88959  Biso   1.000  C
  H38      1.0000 0.78412  0.33922  0.86210  Biso   1.000  H
  H39      1.0000 0.64482  0.18768  0.79880  Biso   1.000  H
  C67      1.0000 0.57872  0.23939  0.85260  Biso   1.000  C
  C68      1.0000 0.62087  0.75661  0.96901  Biso   1.000  C
  H40      1.0000 0.73909  0.75132  0.93540  Biso   1.000  H
  H41      1.0000 0.59852  0.91360  0.89229  Biso   1.000  H
  C69      1.0000 0.53938  0.85350  0.94229  Biso   1.000  C
  C70      1.0000 0.33659  0.52670  0.97270  Biso   1.000  C
  C71      1.0000 0.36878  0.41000  0.93719  Biso   1.000  C
  C72      1.0000 0.33870  0.65009  0.98601  Biso   1.000  C
  C73      1.0000 0.58549  0.29540  0.88579  Biso   1.000  C
  H42      1.0000 0.67050  0.36368  0.91480  Biso   1.000  H
  H43      1.0000 0.52890  0.21219  0.85222  Biso   1.000  H
  C74      1.0000 0.54257  0.79011  0.96822  Biso   1.000  C
  H44      1.0000 0.62911  0.72018  0.99160  Biso   1.000  H
  H45      1.0000 0.49173  0.88210  0.94719  Biso   1.000  H
  H46      1.0000 0.38909  0.52311  0.99061  Biso   1.000  H
  C75      1.0000 0.43667  0.39972  0.97110  Biso   1.000  C
  C76      1.0000 0.36220  0.37342  0.89290  Biso   1.000  C
  C77      1.0000 0.32822  0.70620  0.95920  Biso   1.000  C
  C78      1.0000 0.40832  0.64830  0.02000  Biso   1.000  C
  C79      1.0000 0.50501  0.32600  0.90989  Biso   1.000  C
  C80      1.0000 0.46433  0.75232  0.98620  Biso   1.000  C
  C81      1.0000 0.50399  0.35849  0.95590  Biso   1.000  C
  H47      1.0000 0.43693  0.42019  0.00369  Biso   1.000  H
  C82      1.0000 0.42978  0.33039  0.88081  Biso   1.000  C
  H48      1.0000 0.31373  0.37721  0.87149  Biso   1.000  H
  C83      1.0000 0.38999  0.76071  0.95681  Biso   1.000  C
  H49      1.0000 0.27681  0.71089  0.94031  Biso   1.000  H
  H50      1.0000 0.41432  0.61111  0.04209  Biso   1.000  H
  C84      1.0000 0.46950  0.70001  0.02201  Biso   1.000  C
  H51      1.0000 0.55100  0.35270  0.97829  Biso   1.000  H
  H52      1.0000 0.42460  0.30289  0.85149  Biso   1.000  H
  H53      1.0000 0.38072  0.79929  0.93670  Biso   1.000  H
  H54      1.0000 0.51319  0.69961  0.04711  Biso   1.000  H
  C85      1.0000 0.46062  0.35350  0.55771  Biso   1.000  C
  C86      1.0000 0.45743  0.29011  0.53178  Biso   1.000  C
  C87      1.0000 0.39522  0.37312  0.58931  Biso   1.000  C
  H55      1.0000 0.50827  0.38210  0.55281  Biso   1.000  H
  C88      1.0000 0.53567  0.25232  0.51380  Biso   1.000  C
  C89      1.0000 0.37913  0.25661  0.53099  Biso   1.000  C
  C90      1.0000 0.32050  0.33648  0.59581  Biso   1.000  C
  H56      1.0000 0.40148  0.41360  0.60771  Biso   1.000  H
  C91      1.0000 0.53050  0.20001  0.47799  Biso   1.000  C
  C92      1.0000 0.61001  0.26071  0.54319  Biso   1.000  C
  H57      1.0000 0.37089  0.22018  0.50840  Biso   1.000  H
  C93      1.0000 0.31213  0.27668  0.56349  Biso   1.000  C
  C94      1.0000 0.26078  0.34222  0.64048  Biso   1.000  C
  C95      1.0000 0.59168  0.14830  0.48000  Biso   1.000  C
  H58      1.0000 0.48681  0.19961  0.45289  Biso   1.000  H
  C96      1.0000 0.67178  0.20620  0.54080  Biso   1.000  C
  H59      1.0000 0.61928  0.29929  0.56330  Biso   1.000  H
  H60      1.0000 0.26091  0.25132  0.56460  Biso   1.000  H
  C97      1.0000 0.17941  0.31212  0.64121  Biso   1.000  C
  C98      1.0000 0.29099  0.36772  0.68729  Biso   1.000  C
  C99      1.0000 0.66130  0.15009  0.51399  Biso   1.000  C
  H61      1.0000 0.58568  0.11111  0.45791  Biso   1.000  H
  H62      1.0000 0.72319  0.21089  0.55969  Biso   1.000  H
  H63      1.0000 0.15322  0.29969  0.60999  Biso   1.000  H
  C100     1.0000 0.13579  0.29999  0.68751  Biso   1.000  C
  C101     1.0000 0.24800  0.35599  0.73299  Biso   1.000  C
  H64      1.0000 0.34202  0.39338  0.68770  Biso   1.000  H
  C102     1.0000 0.70933  0.08890  0.52730  Biso   1.000  C
  H65      1.0000 0.08182  0.27828  0.68679  Biso   1.000  H
  C103     1.0000 0.17040  0.31901  0.73378  Biso   1.000  C
  H66      1.0000 0.27081  0.37292  0.76390  Biso   1.000  H
  C104     1.0000 0.79121  0.08970  0.55239  Biso   1.000  C
  C105     1.0000 0.66341  0.02670  0.52730  Biso   1.000  C
  C106     1.0000 0.14141  0.28551  0.78169  Biso   1.000  C
  C107     1.0000 0.82091  0.03569  0.58288  Biso   1.000  C
  H67      1.0000 0.82679  0.12768  0.54829  Biso   1.000  H
  H68      1.0000 0.61091  0.02311  0.50939  Biso   1.000  H
  C108     1.0000 0.69662  0.97020  0.55422  Biso   1.000  C
  C109     1.0000 0.11752  0.21578  0.77899  Biso   1.000  C
  C110     1.0000 0.14671  0.31541  0.82830  Biso   1.000  C
  C111     1.0000 0.88178  0.04902  0.62440  Biso   1.000  C
  C112     1.0000 0.77071  0.97529  0.58151  Biso   1.000  C
  C113     1.0000 0.63122  0.91000  0.56281  Biso   1.000  C
  H69      1.0000 0.10372  0.19622  0.74721  Biso   1.000  H
  C114     1.0000 0.11458  0.17660  0.82450  Biso   1.000  C
  C115     1.0000 0.14038  0.27299  0.87609  Biso   1.000  C
  H70      1.0000 0.15431  0.36228  0.83081  Biso   1.000  H
  C116     1.0000 0.88638  0.10981  0.65071  Biso   1.000  C
  C117     1.0000 0.92023  0.99311  0.65330  Biso   1.000  C
  H71      1.0000 0.78987  0.93761  0.60018  Biso   1.000  H
  C118     1.0000 0.56333  0.89972  0.52890  Biso   1.000  C
  C119     1.0000 0.63780  0.87342  0.60710  Biso   1.000  C
  H72      1.0000 0.10430  0.12998  0.82222  Biso   1.000  H
  C120     1.0000 0.12697  0.20660  0.87332  Biso   1.000  C
  H73      1.0000 0.14600  0.29360  0.90849  Biso   1.000  H
  H74      1.0000 0.87271  0.14900  0.63208  Biso   1.000  H
  C121     1.0000 0.90809  0.11780  0.69941  Biso   1.000  C
  C122     1.0000 0.94380  0.00030  0.70299  Biso   1.000  C
  H75      1.0000 0.92853  0.95128  0.63691  Biso   1.000  H
  H76      1.0000 0.56307  0.92019  0.49631  Biso   1.000  H
  C123     1.0000 0.49601  0.85849  0.54410  Biso   1.000  C
  C124     1.0000 0.57022  0.83039  0.61919  Biso   1.000  C
  H77      1.0000 0.68627  0.87721  0.62851  Biso   1.000  H
  C125     1.0000 0.14262  0.16088  0.91719  Biso   1.000  C
  H78      1.0000 0.90918  0.16118  0.71401  Biso   1.000  H
  C126     1.0000 0.92911  0.06209  0.72880  Biso   1.000  C
  H79      1.0000 0.96998  0.96421  0.72052  Biso   1.000  H
  H80      1.0000 0.44900  0.85270  0.52171  Biso   1.000  H
  C127     1.0000 0.49499  0.82600  0.59011  Biso   1.000  C
  H81      1.0000 0.57540  0.80289  0.64851  Biso   1.000  H
  C128     1.0000 0.21281  0.17400  0.94959  Biso   1.000  C
  C129     1.0000 0.10360  0.09549  0.91769  Biso   1.000  C
  C130     1.0000 0.91250  0.06549  0.78751  Biso   1.000  C
  C131     1.0000 0.41451  0.79540  0.61421  Biso   1.000  C
  C132     1.0000 0.24960  0.12269  0.98160  Biso   1.000  C
  H82      1.0000 0.23651  0.21768  0.95038  Biso   1.000  H
  C133     1.0000 0.14121  0.04398  0.94799  Biso   1.000  C
  H83      1.0000 0.05371  0.08690  0.89818  Biso   1.000  H
  C134     1.0000 0.91250  0.12698  0.81370  Biso   1.000  C
  C135     1.0000 0.88261  0.00849  0.81309  Biso   1.000  C
  C136     1.0000 0.33582  0.82999  0.61041  Biso   1.000  C
  C137     1.0000 0.42128  0.73939  0.64740  Biso   1.000  C
  C138     1.0000 0.20802  0.05610  0.98202  Biso   1.000  C
  C139     1.0000 0.33998  0.12988  0.00312  Biso   1.000  C
  C140     1.0000 0.11899  0.97280  0.93031  Biso   1.000  C
  H84      1.0000 0.94022  0.16482  0.79941  Biso   1.000  H
  C141     1.0000 0.87201  0.13168  0.86031  Biso   1.000  C
  C142     1.0000 0.83899  0.01522  0.86039  Biso   1.000  C
  H85      1.0000 0.89161  0.96551  0.79891  Biso   1.000  H
  H86      1.0000 0.32950  0.86368  0.58520  Biso   1.000  H
  C143     1.0000 0.26831  0.81591  0.64219  Biso   1.000  C
  C144     1.0000 0.35198  0.72572  0.67968  Biso   1.000  C
  H87      1.0000 0.47110  0.71219  0.64778  Biso   1.000  H
  H88      1.0000 0.22642  0.02241  0.00502  Biso   1.000  H
  C145     1.0000 0.38877  0.18568  0.99221  Biso   1.000  C
  C146     1.0000 0.38130  0.07472  0.02521  Biso   1.000  C
  C147     1.0000 0.05078  0.95732  0.90031  Biso   1.000  C
  C148     1.0000 0.18171  0.92418  0.93761  Biso   1.000  C
  H89      1.0000 0.87207  0.17360  0.87731  Biso   1.000  H
  C149     1.0000 0.83011  0.07662  0.88412  Biso   1.000  C
  H90      1.0000 0.81529  0.97659  0.87602  Biso   1.000  H
  H91      1.0000 0.21588  0.83922  0.63790  Biso   1.000  H
  C150     1.0000 0.27572  0.76660  0.68181  Biso   1.000  C
  H92      1.0000 0.35518  0.68768  0.70120  Biso   1.000  H
  C151     1.0000 0.47768  0.18169  0.99259  Biso   1.000  C
  H93      1.0000 0.36163  0.22691  0.98449  Biso   1.000  H
  C152     1.0000 0.47078  0.07028  0.02669  Biso   1.000  C
  H94      1.0000 0.34802  0.03968  0.03950  Biso   1.000  H
  C153     1.0000 0.05352  0.90082  0.86811  Biso   1.000  C
  H95      1.0000 0.00128  0.98468  0.90111  Biso   1.000  H
  C154     1.0000 0.18299  0.86498  0.90560  Biso   1.000  C
  H96      1.0000 0.22348  0.92982  0.96339  Biso   1.000  H
  C155     1.0000 0.76260  0.08720  0.92529  Biso   1.000  C
  C156     1.0000 0.21933  0.76979  0.72759  Biso   1.000  C
  C157     1.0000 0.52232  0.12199  0.00502  Biso   1.000  C
  H97      1.0000 0.50980  0.22038  0.98430  Biso   1.000  H
  H98      1.0000 0.49729  0.03279  0.04209  Biso   1.000  H
  C158     1.0000 0.12167  0.85699  0.86640  Biso   1.000  C
  H99      1.0000 0.00588  0.89258  0.84659  Biso   1.000  H
  H100     1.0000 0.22501  0.83159  0.91100  Biso   1.000  H
  C159     1.0000 0.74542  0.15039  0.94609  Biso   1.000  C
  C160     1.0000 0.70607  0.03409  0.93890  Biso   1.000  C
  C161     1.0000 0.13751  0.80219  0.72979  Biso   1.000  C
  C162     1.0000 0.25362  0.75162  0.77599  Biso   1.000  C
  C163     1.0000 0.61027  0.10882  0.98669  Biso   1.000  C
  C164     1.0000 0.14147  0.81402  0.82039  Biso   1.000  C
  H101     1.0000 0.78348  0.18648  0.94038  Biso   1.000  H
  C165     1.0000 0.66999  0.15998  0.97631  Biso   1.000  C
  C166     1.0000 0.63282  0.04602  0.96871  Biso   1.000  C
  H102     1.0000 0.71821  0.99002  0.92769  Biso   1.000  H
  H103     1.0000 0.10641  0.80992  0.69930  Biso   1.000  H
  C167     1.0000 0.10392  0.82210  0.77549  Biso   1.000  C
  C168     1.0000 0.21741  0.77339  0.82191  Biso   1.000  C
  H104     1.0000 0.30261  0.72382  0.77720  Biso   1.000  H
  H105     1.0000 0.65958  0.20310  0.98989  Biso   1.000  H
  H106     1.0000 0.59699  0.00918  0.97688  Biso   1.000  H
  H107     1.0000 0.04969  0.84342  0.77511  Biso   1.000  H
  H108     1.0000 0.24251  0.76161  0.85351  Biso   1.000  H
  C169     1.0000 0.35958  0.72701  0.37609  Biso   1.000  C
  C170     1.0000 0.35332  0.68459  0.32830  Biso   1.000  C
  C171     1.0000 0.37300  0.79340  0.37332  Biso   1.000  C
  H109     1.0000 0.35403  0.70640  0.40849  Biso   1.000  H
  C172     1.0000 0.35863  0.71449  0.28169  Biso   1.000  C
  H110     1.0000 0.34572  0.63772  0.33081  Biso   1.000  H
  C173     1.0000 0.38539  0.82340  0.32450  Biso   1.000  C
  C174     1.0000 0.35741  0.83912  0.41719  Biso   1.000  C
  C175     1.0000 0.32963  0.68099  0.23378  Biso   1.000  C
  C176     1.0000 0.38251  0.78422  0.27899  Biso   1.000  C
  H111     1.0000 0.39567  0.87002  0.32222  Biso   1.000  H
  C177     1.0000 0.28722  0.82600  0.44959  Biso   1.000  C
  C178     1.0000 0.39637  0.90451  0.41769  Biso   1.000  C
  C179     1.0000 0.25203  0.64401  0.23299  Biso   1.000  C
  C180     1.0000 0.36418  0.70001  0.18751  Biso   1.000  C
  H112     1.0000 0.39631  0.80378  0.24721  Biso   1.000  H
  C181     1.0000 0.25043  0.87731  0.48160  Biso   1.000  C
  H113     1.0000 0.26352  0.78232  0.45038  Biso   1.000  H
  C182     1.0000 0.35882  0.95602  0.44799  Biso   1.000  C
  H114     1.0000 0.44632  0.91310  0.39818  Biso   1.000  H
  C183     1.0000 0.20898  0.63228  0.18729  Biso   1.000  C
  H115     1.0000 0.22923  0.62708  0.26390  Biso   1.000  H
  C184     1.0000 0.32062  0.68788  0.14121  Biso   1.000  C
  H116     1.0000 0.41822  0.72172  0.18679  Biso   1.000  H
  C185     1.0000 0.15999  0.87012  0.50312  Biso   1.000  C
  C186     1.0000 0.29201  0.94390  0.48202  Biso   1.000  C
  C187     1.0000 0.38098  0.02720  0.43031  Biso   1.000  C
  C188     1.0000 0.23919  0.65778  0.14048  Biso   1.000  C
  H117     1.0000 0.15801  0.60662  0.18770  Biso   1.000  H
  H118     1.0000 0.34681  0.70031  0.10999  Biso   1.000  H
  C189     1.0000 0.11120  0.81432  0.49221  Biso   1.000  C
  C190     1.0000 0.11867  0.92528  0.52521  Biso   1.000  C
  H119     1.0000 0.27362  0.97759  0.50502  Biso   1.000  H
  C191     1.0000 0.44919  0.04268  0.40031  Biso   1.000  C
  C192     1.0000 0.31832  0.07582  0.43761  Biso   1.000  C
  C193     1.0000 0.17947  0.66352  0.09581  Biso   1.000  C
  C194     1.0000 0.02229  0.81831  0.49259  Biso   1.000  C
  H120     1.0000 0.13840  0.77309  0.48449  Biso   1.000  H
  H121     1.0000 0.15201  0.96032  0.53950  Biso   1.000  H
  C195     1.0000 0.02919  0.92972  0.52669  Biso   1.000  C
  C196     1.0000 0.44651  0.09918  0.36811  Biso   1.000  C
  H122     1.0000 0.49869  0.01532  0.40111  Biso   1.000  H
  H123     1.0000 0.27649  0.07018  0.46339  Biso   1.000  H
  C197     1.0000 0.31698  0.13502  0.40560  Biso   1.000  C
  C198     1.0000 0.18790  0.72332  0.06349  Biso   1.000  C
  C199     1.0000 0.10481  0.62688  0.08931  Biso   1.000  C
  C200     1.0000 0.97771  0.87801  0.50502  Biso   1.000  C
  H124     1.0000 0.99023  0.77962  0.48430  Biso   1.000  H
  H125     1.0000 0.00268  0.96721  0.54209  Biso   1.000  H
  C201     1.0000 0.37830  0.14301  0.36640  Biso   1.000  C
  H126     1.0000 0.49409  0.10742  0.34659  Biso   1.000  H
  H127     1.0000 0.27502  0.16841  0.41100  Biso   1.000  H
  C202     1.0000 0.12090  0.74339  0.03099  Biso   1.000  C
  H128     1.0000 0.23913  0.74868  0.06460  Biso   1.000  H
  H129     1.0000 0.09849  0.58640  0.10771  Biso   1.000  H
  C203     1.0000 0.03941  0.64650  0.05771  Biso   1.000  C
  C204     1.0000 0.88970  0.89118  0.48669  Biso   1.000  C
  C205     1.0000 0.35850  0.18598  0.32039  Biso   1.000  C
  C206     1.0000 0.04260  0.70989  0.03178  Biso   1.000  C
  H130     1.0000 0.12908  0.77982  0.00840  Biso   1.000  H
  H131     1.0000 0.99170  0.61790  0.05281  Biso   1.000  H
  C207     1.0000 0.82998  0.84002  0.47631  Biso   1.000  C
  C208     1.0000 0.86722  0.95398  0.46871  Biso   1.000  C
  C209     1.0000 0.39612  0.17790  0.27549  Biso   1.000  C
  C210     1.0000 0.28262  0.22661  0.32191  Biso   1.000  C
  C211     1.0000 0.96430  0.74768  0.01380  Biso   1.000  C
  C212     1.0000 0.75461  0.84961  0.44609  Biso   1.000  C
  H132     1.0000 0.84039  0.79690  0.48989  Biso   1.000  H
  H133     1.0000 0.90298  0.99082  0.47688  Biso   1.000  H
  C213     1.0000 0.79389  0.96591  0.43890  Biso   1.000  C
  C214     1.0000 0.36252  0.19781  0.22979  Biso   1.000  C
  H134     1.0000 0.45028  0.15658  0.27511  Biso   1.000  H
  H135     1.0000 0.25752  0.23839  0.35351  Biso   1.000  H
  C215     1.0000 0.24641  0.24838  0.27599  Biso   1.000  C
  C216     1.0000 0.96947  0.79999  0.97799  Biso   1.000  C
  C217     1.0000 0.89002  0.73929  0.04319  Biso   1.000  C
  C218     1.0000 0.73737  0.91280  0.42529  Biso   1.000  C
  H136     1.0000 0.71648  0.81352  0.44038  Biso   1.000  H
  H137     1.0000 0.78182  0.00998  0.42769  Biso   1.000  H
  C219     1.0000 0.28071  0.23021  0.22759  Biso   1.000  C
  H138     1.0000 0.39363  0.19008  0.19930  Biso   1.000  H
  H139     1.0000 0.19742  0.27618  0.27720  Biso   1.000  H
  C220     1.0000 0.90828  0.85170  0.98000  Biso   1.000  C
  H140     1.0000 0.01322  0.80039  0.95289  Biso   1.000  H
  H141     1.0000 0.88069  0.70071  0.06330  Biso   1.000  H
  C221     1.0000 0.82819  0.79380  0.04080  Biso   1.000  C
  C222     1.0000 0.66992  0.92338  0.38412  Biso   1.000  C
  C223     1.0000 0.22431  0.23340  0.18181  Biso   1.000  C
  H142     1.0000 0.91429  0.88889  0.95791  Biso   1.000  H
  C224     1.0000 0.83873  0.84991  0.01399  Biso   1.000  C
  H143     1.0000 0.77678  0.78911  0.05969  Biso   1.000  H
  C225     1.0000 0.62803  0.86832  0.36031  Biso   1.000  C
  C226     1.0000 0.66098  0.98478  0.36039  Biso   1.000  C
  C227     1.0000 0.23172  0.18409  0.14219  Biso   1.000  C
  C228     1.0000 0.14798  0.27428  0.17968  Biso   1.000  C
  C229     1.0000 0.79070  0.91110  0.02730  Biso   1.000  C
  C230     1.0000 0.58747  0.87302  0.31370  Biso   1.000  C
  H144     1.0000 0.62790  0.82640  0.37731  Biso   1.000  H
  C231     1.0000 0.61742  0.99151  0.31309  Biso   1.000  C
  H145     1.0000 0.68468  0.02341  0.37602  Biso   1.000  H
  C232     1.0000 0.16421  0.17001  0.11041  Biso   1.000  C
  H146     1.0000 0.28409  0.16078  0.13790  Biso   1.000  H
  C233     1.0000 0.07869  0.26061  0.14740  Biso   1.000  C
  H147     1.0000 0.14479  0.31232  0.20120  Biso   1.000  H
  C234     1.0000 0.70882  0.91030  0.05239  Biso   1.000  C
  C235     1.0000 0.83662  0.97330  0.02730  Biso   1.000  C
  C236     1.0000 0.58747  0.93451  0.28751  Biso   1.000  C
  H148     1.0000 0.55981  0.83518  0.29941  Biso   1.000  H
  H149     1.0000 0.60842  0.03449  0.29891  Biso   1.000  H
  C237     1.0000 0.08552  0.20460  0.11421  Biso   1.000  C
  H150     1.0000 0.17053  0.13632  0.08520  Biso   1.000  H
  H151     1.0000 0.02887  0.28781  0.14778  Biso   1.000  H
  C238     1.0000 0.67912  0.96431  0.08288  Biso   1.000  C
  H152     1.0000 0.67318  0.87232  0.04829  Biso   1.000  H
  H153     1.0000 0.88912  0.97689  0.00939  Biso   1.000  H
  C239     1.0000 0.80341  0.02980  0.05422  Biso   1.000  C
  C240     1.0000 0.57093  0.93791  0.22880  Biso   1.000  C
  C241     1.0000 0.00498  0.17400  0.09011  Biso   1.000  C
  C242     1.0000 0.61819  0.95098  0.12440  Biso   1.000  C
  C243     1.0000 0.72932  0.02471  0.08151  Biso   1.000  C
  C244     1.0000 0.86881  0.09000  0.06281  Biso   1.000  C
  C245     1.0000 0.59188  0.88220  0.19941  Biso   1.000  C
  C246     1.0000 0.55617  0.99970  0.20299  Biso   1.000  C
  C247     1.0000 0.00402  0.14151  0.04410  Biso   1.000  C
  C248     1.0000 0.92981  0.16961  0.11919  Biso   1.000  C
  C249     1.0000 0.61359  0.89019  0.15071  Biso   1.000  C
  C250     1.0000 0.57980  0.00689  0.15330  Biso   1.000  C
  H154     1.0000 0.71010  0.06239  0.10018  Biso   1.000  H
  C251     1.0000 0.93671  0.10028  0.02890  Biso   1.000  C
  C252     1.0000 0.86217  0.12658  0.10710  Biso   1.000  C
  H155     1.0000 0.59079  0.83882  0.21401  Biso   1.000  H
  H156     1.0000 0.52999  0.03579  0.22052  Biso   1.000  H
  H157     1.0000 0.05103  0.14730  0.02171  Biso   1.000  H
  H158     1.0000 0.92457  0.19711  0.14851  Biso   1.000  H
  H159     1.0000 0.62732  0.85100  0.13208  Biso   1.000  H
  H160     1.0000 0.57150  0.04872  0.13691  Biso   1.000  H
  H161     1.0000 0.93690  0.07981  0.99631  Biso   1.000  H
  H162     1.0000 0.81369  0.12279  0.12851  Biso   1.000  H
  C253     1.0000 0.76828  0.68409  0.35781  Biso   1.000  C
  C254     1.0000 0.77569  0.73340  0.31819  Biso   1.000  C
  C255     1.0000 0.83579  0.67001  0.38959  Biso   1.000  C
  H163     1.0000 0.71591  0.66078  0.36210  Biso   1.000  H
  C256     1.0000 0.71929  0.73021  0.27241  Biso   1.000  C
  C257     1.0000 0.85202  0.77428  0.32032  Biso   1.000  C
  C258     1.0000 0.91448  0.70460  0.38579  Biso   1.000  C
  H164     1.0000 0.82947  0.63632  0.41480  Biso   1.000  H
  C259     1.0000 0.63748  0.69781  0.27021  Biso   1.000  C
  C260     1.0000 0.75359  0.74838  0.22401  Biso   1.000  C
  H165     1.0000 0.85521  0.81232  0.29880  Biso   1.000  H
  C261     1.0000 0.92131  0.76061  0.35260  Biso   1.000  C
  C262     1.0000 0.99502  0.67400  0.40989  Biso   1.000  C
  C263     1.0000 0.60388  0.67790  0.22451  Biso   1.000  C
  H166     1.0000 0.60637  0.69008  0.30070  Biso   1.000  H
  C264     1.0000 0.71738  0.72661  0.17809  Biso   1.000  C
  H167     1.0000 0.80258  0.77618  0.22280  Biso   1.000  H
  H168     1.0000 0.97113  0.78781  0.35222  Biso   1.000  H
  C265     1.0000 0.99598  0.64151  0.45590  Biso   1.000  C
  C266     1.0000 0.07019  0.66961  0.38081  Biso   1.000  C
  C267     1.0000 0.64150  0.68598  0.17961  Biso   1.000  C
  H169     1.0000 0.54972  0.65658  0.22489  Biso   1.000  H
  H170     1.0000 0.74248  0.73839  0.14649  Biso   1.000  H
  C268     1.0000 0.06329  0.60028  0.47110  Biso   1.000  C
  H171     1.0000 0.94897  0.64730  0.47829  Biso   1.000  H
  C269     1.0000 0.13783  0.62658  0.39290  Biso   1.000  C
  H172     1.0000 0.07543  0.69711  0.35149  Biso   1.000  H
  C270     1.0000 0.62170  0.64301  0.13360  Biso   1.000  C
  C271     1.0000 0.13119  0.59000  0.43719  Biso   1.000  C
  H173     1.0000 0.06310  0.57981  0.50369  Biso   1.000  H
  H174     1.0000 0.18631  0.62279  0.37149  Biso   1.000  H
  C272     1.0000 0.55349  0.59918  0.13189  Biso   1.000  C
  C273     1.0000 0.68302  0.63502  0.09440  Biso   1.000  C
  C274     1.0000 0.19659  0.52980  0.44578  Biso   1.000  C
  C275     1.0000 0.55081  0.54268  0.09969  Biso   1.000  C
  H175     1.0000 0.50591  0.60742  0.15341  Biso   1.000  H
  C276     1.0000 0.68168  0.57582  0.06239  Biso   1.000  C
  H176     1.0000 0.72498  0.66841  0.08900  Biso   1.000  H
  C277     1.0000 0.16338  0.47330  0.47270  Biso   1.000  C
  C278     1.0000 0.27068  0.52471  0.41849  Biso   1.000  C
  C279     1.0000 0.61902  0.52720  0.06969  Biso   1.000  C
  H177     1.0000 0.50131  0.51532  0.09889  Biso   1.000  H
  H178     1.0000 0.72351  0.57018  0.03661  Biso   1.000  H
  C280     1.0000 0.20930  0.41110  0.47270  Biso   1.000  C
  H179     1.0000 0.11088  0.47689  0.49061  Biso   1.000  H
  C281     1.0000 0.32088  0.46431  0.41712  Biso   1.000  C
  H180     1.0000 0.28990  0.56239  0.39982  Biso   1.000  H
  C282     1.0000 0.64118  0.45602  0.05201  Biso   1.000  C
  C283     1.0000 0.16127  0.34991  0.48601  Biso   1.000  C
  C284     1.0000 0.29118  0.41030  0.44761  Biso   1.000  C
  C285     1.0000 0.38181  0.45098  0.37560  Biso   1.000  C
  C286     1.0000 0.60363  0.40451  0.08231  Biso   1.000  C
  C287     1.0000 0.70799  0.44390  0.01798  Biso   1.000  C
  C288     1.0000 0.09172  0.35170  0.52000  Biso   1.000  C
  C289     1.0000 0.17181  0.29380  0.45920  Biso   1.000  C
  H181     1.0000 0.32682  0.37232  0.45171  Biso   1.000  H
  C290     1.0000 0.38641  0.39019  0.34929  Biso   1.000  C
  C291     1.0000 0.42020  0.50689  0.34670  Biso   1.000  C
  C292     1.0000 0.64259  0.33912  0.08281  Biso   1.000  C
  H182     1.0000 0.55368  0.41310  0.10182  Biso   1.000  H
  C293     1.0000 0.74957  0.37731  0.01840  Biso   1.000  C
  H183     1.0000 0.72638  0.47759  0.99498  Biso   1.000  H
  C294     1.0000 0.03053  0.29999  0.52201  Biso   1.000  C
  H184     1.0000 0.08571  0.38889  0.54209  Biso   1.000  H
  C295     1.0000 0.10998  0.23929  0.45681  Biso   1.000  C
  H185     1.0000 0.22322  0.28911  0.44031  Biso   1.000  H
  H186     1.0000 0.37268  0.35100  0.36792  Biso   1.000  H
  C296     1.0000 0.40812  0.38220  0.30059  Biso   1.000  C
  C297     1.0000 0.44383  0.49970  0.29701  Biso   1.000  C
  H187     1.0000 0.42850  0.54872  0.36309  Biso   1.000  H
  C298     1.0000 0.62700  0.29340  0.12668  Biso   1.000  C
  C299     1.0000 0.71278  0.32600  0.05041  Biso   1.000  C
  C300     1.0000 0.84001  0.37012  0.99688  Biso   1.000  C
  C301     1.0000 0.03570  0.24768  0.48620  Biso   1.000  C
  H188     1.0000 0.98678  0.30039  0.54711  Biso   1.000  H
  H189     1.0000 0.11931  0.20071  0.43670  Biso   1.000  H
  C302     1.0000 0.42907  0.43791  0.27120  Biso   1.000  C
  H190     1.0000 0.40921  0.33882  0.28599  Biso   1.000  H
  H191     1.0000 0.47001  0.53579  0.27948  Biso   1.000  H
  C303     1.0000 0.61461  0.32340  0.17550  Biso   1.000  C
  C304     1.0000 0.64042  0.22701  0.12391  Biso   1.000  C
  H192     1.0000 0.73648  0.28232  0.04962  Biso   1.000  H
  C305     1.0000 0.88880  0.31432  0.00779  Biso   1.000  C
  C306     1.0000 0.88133  0.42528  0.97479  Biso   1.000  C
  C307     1.0000 0.95740  0.20989  0.46822  Biso   1.000  C
  C308     1.0000 0.41253  0.43451  0.21249  Biso   1.000  C
  C309     1.0000 0.61749  0.28422  0.22101  Biso   1.000  C
  H193     1.0000 0.60433  0.37002  0.17778  Biso   1.000  H
  C310     1.0000 0.64668  0.18459  0.17170  Biso   1.000  C
  H194     1.0000 0.64597  0.20640  0.09151  Biso   1.000  H
  C311     1.0000 0.97771  0.31831  0.00741  Biso   1.000  C
  H195     1.0000 0.86160  0.27309  0.01551  Biso   1.000  H
  H196     1.0000 0.84799  0.46032  0.96050  Biso   1.000  H
  C312     1.0000 0.97081  0.42972  0.97331  Biso   1.000  C
  C313     1.0000 0.87910  0.24339  0.46901  Biso   1.000  C
  C314     1.0000 0.96059  0.14650  0.44229  Biso   1.000  C
  C315     1.0000 0.41253  0.37302  0.18630  Biso   1.000  C
  C316     1.0000 0.38258  0.49151  0.18691  Biso   1.000  C
  C317     1.0000 0.64137  0.21449  0.21831  Biso   1.000  C
  H197     1.0000 0.60369  0.30378  0.25279  Biso   1.000  H
  H198     1.0000 0.65428  0.13772  0.16919  Biso   1.000  H
  C318     1.0000 0.02229  0.37801  0.99498  Biso   1.000  C
  H199     1.0000 0.00977  0.27962  0.01570  Biso   1.000  H
  H200     1.0000 0.99732  0.46721  0.95791  Biso   1.000  H
  C319     1.0000 0.81210  0.22332  0.43651  Biso   1.000  C
  H201     1.0000 0.87092  0.27982  0.49160  Biso   1.000  H
  C320     1.0000 0.89519  0.12688  0.41069  Biso   1.000  C
  H202     1.0000 0.00830  0.11790  0.44719  Biso   1.000  H
  C321     1.0000 0.37197  0.36832  0.13969  Biso   1.000  C
  H203     1.0000 0.44019  0.33518  0.20059  Biso   1.000  H
  C322     1.0000 0.33902  0.48478  0.13961  Biso   1.000  C
  H204     1.0000 0.39158  0.53449  0.20109  Biso   1.000  H
  C323     1.0000 0.67037  0.18099  0.26622  Biso   1.000  C
  C324     1.0000 0.11030  0.39118  0.01331  Biso   1.000  C
  C325     1.0000 0.82053  0.16352  0.40419  Biso   1.000  C
  H205     1.0000 0.76087  0.24868  0.43540  Biso   1.000  H
  H206     1.0000 0.90151  0.08640  0.39229  Biso   1.000  H
  C326     1.0000 0.33008  0.42338  0.11588  Biso   1.000  C
  H207     1.0000 0.37210  0.32640  0.12269  Biso   1.000  H
  H208     1.0000 0.31532  0.52341  0.12398  Biso   1.000  H
  C327     1.0000 0.63582  0.20001  0.31249  Biso   1.000  C
  C328     1.0000 0.74797  0.14401  0.26701  Biso   1.000  C
  C329     1.0000 0.17002  0.34002  0.02369  Biso   1.000  C
  C330     1.0000 0.13278  0.45398  0.03129  Biso   1.000  C
  C331     1.0000 0.76081  0.15778  0.35952  Biso   1.000  C
  C332     1.0000 0.26263  0.41280  0.07471  Biso   1.000  C
  C333     1.0000 0.67938  0.18788  0.35879  Biso   1.000  C
  H209     1.0000 0.58178  0.22172  0.31321  Biso   1.000  H
  H210     1.0000 0.77077  0.12708  0.23610  Biso   1.000  H
  C334     1.0000 0.79102  0.13228  0.31271  Biso   1.000  C
  C335     1.0000 0.24539  0.34961  0.05391  Biso   1.000  C
  H211     1.0000 0.15961  0.29690  0.01011  Biso   1.000  H
  H212     1.0000 0.09702  0.49082  0.02312  Biso   1.000  H
  C336     1.0000 0.20611  0.46591  0.06110  Biso   1.000  C
  H213     1.0000 0.65319  0.20031  0.39001  Biso   1.000  H
  H214     1.0000 0.84199  0.10662  0.31230  Biso   1.000  H
  H215     1.0000 0.28352  0.31352  0.05962  Biso   1.000  H
  H216     1.0000 0.21818  0.50998  0.07231  Biso   1.000  H
