data_image0
_cell_length_a       11.069
_cell_length_b       20.233
_cell_length_c       26.763
_cell_angle_alpha    90
_cell_angle_beta     96.25
_cell_angle_gamma    90

_symmetry_space_group_name_H-M    "P 1"
_symmetry_int_tables_number       1

loop_
  _symmetry_equiv_pos_as_xyz
  'x, y, z'

loop_
  _atom_site_label
  _atom_site_occupancy
  _atom_site_fract_x
  _atom_site_fract_y
  _atom_site_fract_z
  _atom_site_thermal_displace_type
  _atom_site_B_iso_or_equiv
  _atom_site_type_symbol
  O1       1.0000 0.74274  0.39099  0.59390  Biso   1.000  O
  C1       1.0000 0.77668  0.36391  0.54951  Biso   1.000  C
  C2       1.0000 0.63704  0.36129  0.60901  Biso   1.000  C
  C3       1.0000 0.87282  0.39391  0.53071  Biso   1.000  C
  H1       1.0000 0.70720  0.36559  0.52410  Biso   1.000  H
  H2       1.0000 0.79677  0.31770  0.55548  Biso   1.000  H
  C4       1.0000 0.61241  0.38338  0.65889  Biso   1.000  C
  H3       1.0000 0.56815  0.37211  0.58480  Biso   1.000  H
  H4       1.0000 0.64688  0.31370  0.60931  Biso   1.000  H
  O2       1.0000 0.97262  0.40770  0.56319  Biso   1.000  O
  H5       1.0000 0.84384  0.43498  0.51500  Biso   1.000  H
  H6       1.0000 0.89812  0.36579  0.50429  Biso   1.000  H
  O3       1.0000 0.59098  0.45332  0.65678  Biso   1.000  O
  H7       1.0000 0.68128  0.37360  0.68340  Biso   1.000  H
  H8       1.0000 0.54168  0.36070  0.66889  Biso   1.000  H
  C5       1.0000 0.07460  0.41620  0.55251  Biso   1.000  C
  C6       1.0000 0.56940  0.48628  0.69971  Biso   1.000  C
  H9       1.0000 0.09334  0.37750  0.53342  Biso   1.000  H
  H10      1.0000 0.06913  0.45292  0.52898  Biso   1.000  H
  C7       1.0000 0.17873  0.42831  0.58600  Biso   1.000  C
  C8       1.0000 0.56084  0.55469  0.69501  Biso   1.000  C
  C9       1.0000 0.55614  0.45490  0.74440  Biso   1.000  C
  O4       1.0000 0.15444  0.46800  0.62791  Biso   1.000  O
  H11      1.0000 0.21286  0.38650  0.59830  Biso   1.000  H
  H12      1.0000 0.23900  0.45040  0.56819  Biso   1.000  H
  H13      1.0000 0.56628  0.57520  0.66419  Biso   1.000  H
  C10      1.0000 0.54440  0.59062  0.73688  Biso   1.000  C
  H14      1.0000 0.56143  0.40908  0.74699  Biso   1.000  H
  C11      1.0000 0.53469  0.49311  0.78579  Biso   1.000  C
  C12      1.0000 0.25928  0.48772  0.65829  Biso   1.000  C
  C13      1.0000 0.53030  0.56082  0.78180  Biso   1.000  C
  C14      1.0000 0.53175  0.66441  0.73241  Biso   1.000  C
  O5       1.0000 0.52020  0.45688  0.82789  Biso   1.000  O
  H15      1.0000 0.30330  0.44892  0.67140  Biso   1.000  H
  H16      1.0000 0.31179  0.51218  0.63810  Biso   1.000  H
  C15      1.0000 0.22944  0.52938  0.70039  Biso   1.000  C
  H17      1.0000 0.51756  0.58642  0.80962  Biso   1.000  H
  O6       1.0000 0.63306  0.69041  0.71399  Biso   1.000  O
  H18      1.0000 0.52283  0.68329  0.76511  Biso   1.000  H
  H19      1.0000 0.45978  0.67518  0.70990  Biso   1.000  H
  C16      1.0000 0.49325  0.49271  0.87100  Biso   1.000  C
  O7       1.0000 0.18418  0.48900  0.73749  Biso   1.000  O
  H20      1.0000 0.16891  0.56190  0.68839  Biso   1.000  H
  H21      1.0000 0.30153  0.55261  0.71478  Biso   1.000  H
  C17      1.0000 0.62997  0.76079  0.70569  Biso   1.000  C
  H22      1.0000 0.56232  0.51950  0.88389  Biso   1.000  H
  H23      1.0000 0.42413  0.52162  0.86239  Biso   1.000  H
  C18      1.0000 0.46475  0.44329  0.90930  Biso   1.000  C
  C19      1.0000 0.18103  0.51549  0.78488  Biso   1.000  C
  H24      1.0000 0.54675  0.77561  0.70599  Biso   1.000  H
  H25      1.0000 0.65309  0.76919  0.67238  Biso   1.000  H
  C20      1.0000 0.70117  0.79810  0.73869  Biso   1.000  C
  O8       1.0000 0.56925  0.40651  0.92531  Biso   1.000  O
  H26      1.0000 0.40081  0.41398  0.89498  Biso   1.000  H
  H27      1.0000 0.43630  0.46582  0.93779  Biso   1.000  H
  C21      1.0000 0.16150  0.46988  0.82119  Biso   1.000  C
  C22      1.0000 0.19844  0.58172  0.79541  Biso   1.000  C
  H28      1.0000 0.72313  0.83670  0.72019  Biso   1.000  H
  H29      1.0000 0.64914  0.81392  0.76308  Biso   1.000  H
  C23      1.0000 0.81196  0.77581  0.76729  Biso   1.000  C
  C24      1.0000 0.55007  0.35852  0.96230  Biso   1.000  C
  C25      1.0000 0.16072  0.49212  0.87040  Biso   1.000  C
  H30      1.0000 0.14916  0.42549  0.81311  Biso   1.000  H
  C26      1.0000 0.19610  0.60209  0.84521  Biso   1.000  C
  H31      1.0000 0.21134  0.61182  0.77030  Biso   1.000  H
  C27      1.0000 0.89192  0.80710  0.79650  Biso   1.000  C
  H32      1.0000 0.85777  0.75520  0.74260  Biso   1.000  H
  H33      1.0000 0.78635  0.73988  0.78770  Biso   1.000  H
  H34      1.0000 0.54692  0.38002  0.99459  Biso   1.000  H
  H35      1.0000 0.47317  0.33628  0.95328  Biso   1.000  H
  C28      1.0000 0.64977  0.31009  0.96591  Biso   1.000  C
  O9       1.0000 0.14395  0.45070  0.90964  Biso   1.000  O
  C29      1.0000 0.18075  0.55770  0.88231  Biso   1.000  C
  C30      1.0000 0.21997  0.67439  0.85799  Biso   1.000  C
  C31      1.0000 0.99109  0.78580  0.83070  Biso   1.000  C
  H36      1.0000 0.92829  0.83739  0.77440  Biso   1.000  H
  H37      1.0000 0.84432  0.83448  0.81680  Biso   1.000  H
  O10      1.0000 0.76046  0.34118  0.98249  Biso   1.000  O
  H38      1.0000 0.65507  0.29022  0.93321  Biso   1.000  H
  H39      1.0000 0.63368  0.27529  0.98921  Biso   1.000  H
  C32      1.0000 0.11723  0.38309  0.89912  Biso   1.000  C
  H40      1.0000 0.18397  0.57169  0.91550  Biso   1.000  H
  O11      1.0000 0.12229  0.70691  0.87231  Biso   1.000  O
  H41      1.0000 0.24616  0.69639  0.82879  Biso   1.000  H
  H42      1.0000 0.28596  0.67711  0.88491  Biso   1.000  H
  C33      1.0000 0.04676  0.72891  0.83491  Biso   1.000  C
  H43      1.0000 0.96550  0.79400  0.86359  Biso   1.000  H
  H44      1.0000 0.05486  0.81772  0.82691  Biso   1.000  H
  C34      1.0000 0.85720  0.29669  0.99098  Biso   1.000  C
  H45      1.0000 0.04172  0.37928  0.87720  Biso   1.000  H
  H46      1.0000 0.18165  0.36332  0.88231  Biso   1.000  H
  C35      1.0000 0.10633  0.34839  0.94760  Biso   1.000  C
  H47      1.0000 0.98274  0.69609  0.83022  Biso   1.000  H
  H48      1.0000 0.09078  0.72579  0.80548  Biso   1.000  H
  H49      1.0000 0.86813  0.27361  0.96008  Biso   1.000  H
  C36      1.0000 0.96881  0.33228  0.00899  Biso   1.000  C
  H50      1.0000 0.83925  0.26422  0.01579  Biso   1.000  H
  O12      1.0000 0.00933  0.37468  0.97140  Biso   1.000  O
  H51      1.0000 0.18159  0.35319  0.96959  Biso   1.000  H
  H52      1.0000 0.09277  0.30159  0.94140  Biso   1.000  H
  H53      1.0000 0.95461  0.35852  0.03808  Biso   1.000  H
  H54      1.0000 0.03235  0.30050  0.01940  Biso   1.000  H
  O13      1.0000 0.25723  0.60901  0.40611  Biso   1.000  O
  C37      1.0000 0.36292  0.63871  0.39099  Biso   1.000  C
  C38      1.0000 0.22329  0.63609  0.45050  Biso   1.000  C
  C39      1.0000 0.38756  0.61662  0.34112  Biso   1.000  C
  H55      1.0000 0.43181  0.62789  0.41520  Biso   1.000  H
  H56      1.0000 0.35309  0.68630  0.39069  Biso   1.000  H
  C40      1.0000 0.12714  0.60609  0.46929  Biso   1.000  C
  H57      1.0000 0.29276  0.63441  0.47591  Biso   1.000  H
  H58      1.0000 0.20318  0.68230  0.44448  Biso   1.000  H
  O14      1.0000 0.40897  0.54668  0.34318  Biso   1.000  O
  H59      1.0000 0.31868  0.62640  0.31661  Biso   1.000  H
  H60      1.0000 0.45828  0.63930  0.33112  Biso   1.000  H
  O15      1.0000 0.02735  0.59230  0.43682  Biso   1.000  O
  H61      1.0000 0.15612  0.56502  0.48500  Biso   1.000  H
  H62      1.0000 0.10184  0.63421  0.49572  Biso   1.000  H
  C41      1.0000 0.43057  0.51372  0.30029  Biso   1.000  C
  C42      1.0000 0.92536  0.58380  0.44749  Biso   1.000  C
  C43      1.0000 0.43912  0.44531  0.30499  Biso   1.000  C
  C44      1.0000 0.44383  0.54510  0.25560  Biso   1.000  C
  C45      1.0000 0.82114  0.57169  0.41400  Biso   1.000  C
  H63      1.0000 0.90654  0.62250  0.46659  Biso   1.000  H
  H64      1.0000 0.93073  0.54708  0.47098  Biso   1.000  H
  C46      1.0000 0.45555  0.40938  0.26308  Biso   1.000  C
  H65      1.0000 0.43368  0.42480  0.33582  Biso   1.000  H
  C47      1.0000 0.46528  0.50689  0.21422  Biso   1.000  C
  H66      1.0000 0.43845  0.59092  0.25301  Biso   1.000  H
  O16      1.0000 0.84553  0.53200  0.37209  Biso   1.000  O
  H67      1.0000 0.78710  0.61350  0.40171  Biso   1.000  H
  H68      1.0000 0.76097  0.54960  0.43182  Biso   1.000  H
  C48      1.0000 0.46821  0.33559  0.26759  Biso   1.000  C
  C49      1.0000 0.46967  0.43918  0.21820  Biso   1.000  C
  O17      1.0000 0.47976  0.54312  0.17212  Biso   1.000  O
  C50      1.0000 0.74068  0.51228  0.34172  Biso   1.000  C
  O18      1.0000 0.36691  0.30959  0.28601  Biso   1.000  O
  H69      1.0000 0.47713  0.31671  0.23489  Biso   1.000  H
  H70      1.0000 0.54018  0.32482  0.29011  Biso   1.000  H
  H71      1.0000 0.48240  0.41358  0.19039  Biso   1.000  H
  C51      1.0000 0.50672  0.50729  0.12900  Biso   1.000  C
  C52      1.0000 0.77053  0.47062  0.29962  Biso   1.000  C
  H72      1.0000 0.69667  0.55108  0.32860  Biso   1.000  H
  H73      1.0000 0.68818  0.48782  0.36190  Biso   1.000  H
  C53      1.0000 0.37000  0.23921  0.29432  Biso   1.000  C
  H74      1.0000 0.43756  0.48050  0.11611  Biso   1.000  H
  H75      1.0000 0.57584  0.47838  0.13761  Biso   1.000  H
  C54      1.0000 0.53521  0.55671  0.09070  Biso   1.000  C
  O19      1.0000 0.81578  0.51100  0.26252  Biso   1.000  O
  H76      1.0000 0.83105  0.43810  0.31161  Biso   1.000  H
  H77      1.0000 0.69834  0.44739  0.28518  Biso   1.000  H
  C55      1.0000 0.29880  0.20190  0.26131  Biso   1.000  C
  H78      1.0000 0.45322  0.22439  0.29402  Biso   1.000  H
  H79      1.0000 0.34686  0.23081  0.32758  Biso   1.000  H
  O20      1.0000 0.43072  0.59349  0.07469  Biso   1.000  O
  H80      1.0000 0.59905  0.58602  0.10498  Biso   1.000  H
  H81      1.0000 0.56367  0.53418  0.06221  Biso   1.000  H
  C56      1.0000 0.81892  0.48451  0.21508  Biso   1.000  C
  C57      1.0000 0.18800  0.22419  0.23271  Biso   1.000  C
  H82      1.0000 0.27683  0.16330  0.27981  Biso   1.000  H
  H83      1.0000 0.35082  0.18608  0.23688  Biso   1.000  H
  C58      1.0000 0.44989  0.64148  0.03770  Biso   1.000  C
  C59      1.0000 0.80153  0.41828  0.20459  Biso   1.000  C
  C60      1.0000 0.83847  0.53012  0.17881  Biso   1.000  C
  C61      1.0000 0.10795  0.19290  0.20350  Biso   1.000  C
  H84      1.0000 0.14220  0.24480  0.25741  Biso   1.000  H
  H85      1.0000 0.21362  0.26012  0.21230  Biso   1.000  H
  H86      1.0000 0.45305  0.61998  0.00541  Biso   1.000  H
  H87      1.0000 0.52679  0.66372  0.04668  Biso   1.000  H
  C62      1.0000 0.35020  0.68991  0.03409  Biso   1.000  C
  C63      1.0000 0.80387  0.39791  0.15479  Biso   1.000  C
  H88      1.0000 0.78862  0.38818  0.22970  Biso   1.000  H
  C64      1.0000 0.83916  0.50788  0.12960  Biso   1.000  C
  H89      1.0000 0.85080  0.57451  0.18689  Biso   1.000  H
  C65      1.0000 0.00888  0.21420  0.16930  Biso   1.000  C
  H90      1.0000 0.07167  0.16261  0.22561  Biso   1.000  H
  H91      1.0000 0.15555  0.16552  0.18321  Biso   1.000  H
  O21      1.0000 0.23950  0.65882  0.01752  Biso   1.000  O
  H92      1.0000 0.34489  0.70978  0.06679  Biso   1.000  H
  H93      1.0000 0.36629  0.72471  0.01079  Biso   1.000  H
  C66      1.0000 0.77999  0.32561  0.14201  Biso   1.000  C
  C67      1.0000 0.81922  0.44230  0.11769  Biso   1.000  C
  O22      1.0000 0.85601  0.54930  0.09033  Biso   1.000  O
  H94      1.0000 0.03446  0.20600  0.13641  Biso   1.000  H
  H95      1.0000 0.94510  0.18228  0.17309  Biso   1.000  H
  C68      1.0000 0.95320  0.27109  0.16509  Biso   1.000  C
  C69      1.0000 0.14276  0.70331  0.00898  Biso   1.000  C
  O23      1.0000 0.87768  0.29309  0.12769  Biso   1.000  O
  H96      1.0000 0.75380  0.30361  0.17122  Biso   1.000  H
  H97      1.0000 0.71401  0.32289  0.11510  Biso   1.000  H
  H98      1.0000 0.81599  0.42831  0.08450  Biso   1.000  H
  C70      1.0000 0.88273  0.61691  0.10089  Biso   1.000  C
  H99      1.0000 0.01723  0.30391  0.16979  Biso   1.000  H
  H100     1.0000 0.90917  0.27421  0.19448  Biso   1.000  H
  C71      1.0000 0.03106  0.66772  0.99102  Biso   1.000  C
  H101     1.0000 0.13183  0.72639  0.03988  Biso   1.000  H
  H102     1.0000 0.16072  0.73578  0.98421  Biso   1.000  H
  H103     1.0000 0.95815  0.62072  0.12280  Biso   1.000  H
  H104     1.0000 0.81831  0.63668  0.11769  Biso   1.000  H
  C72      1.0000 0.89364  0.65161  0.05240  Biso   1.000  C
  O24      1.0000 0.99064  0.62532  0.02860  Biso   1.000  O
  H105     1.0000 0.96761  0.69950  0.98060  Biso   1.000  H
  H106     1.0000 0.04526  0.64148  0.96189  Biso   1.000  H
  H107     1.0000 0.81838  0.64681  0.03041  Biso   1.000  H
  H108     1.0000 0.90719  0.69841  0.05860  Biso   1.000  H
  C73      1.0000 0.89203  0.69288  0.29650  Biso   1.000  C
  C74      1.0000 0.81198  0.72421  0.26729  Biso   1.000  C
  C75      1.0000 0.99110  0.71418  0.33070  Biso   1.000  C
  H109     1.0000 0.92831  0.66258  0.27440  Biso   1.000  H
  H110     1.0000 0.84434  0.66550  0.31680  Biso   1.000  H
  C76      1.0000 0.70119  0.70192  0.23869  Biso   1.000  C
  H111     1.0000 0.85779  0.74482  0.24260  Biso   1.000  H
  H112     1.0000 0.78636  0.76009  0.28770  Biso   1.000  H
  H113     1.0000 0.96552  0.70598  0.36359  Biso   1.000  H
  H114     1.0000 0.05488  0.68230  0.32691  Biso   1.000  H
  C77      1.0000 0.04678  0.77112  0.33491  Biso   1.000  C
  C78      1.0000 0.62998  0.73919  0.20568  Biso   1.000  C
  H115     1.0000 0.72315  0.66332  0.22019  Biso   1.000  H
  H116     1.0000 0.64916  0.68611  0.26308  Biso   1.000  H
  H117     1.0000 0.98275  0.80388  0.33021  Biso   1.000  H
  O25      1.0000 0.12230  0.79311  0.37231  Biso   1.000  O
  H118     1.0000 0.09080  0.77418  0.30548  Biso   1.000  H
  O26      1.0000 0.63307  0.80962  0.21399  Biso   1.000  O
  H119     1.0000 0.54677  0.72441  0.20598  Biso   1.000  H
  H120     1.0000 0.65312  0.73079  0.17242  Biso   1.000  H
  C79      1.0000 0.21999  0.82558  0.35799  Biso   1.000  C
  C80      1.0000 0.53177  0.83562  0.23241  Biso   1.000  C
  C81      1.0000 0.19612  0.89789  0.34521  Biso   1.000  C
  H121     1.0000 0.24618  0.80359  0.32879  Biso   1.000  H
  H122     1.0000 0.28598  0.82291  0.38491  Biso   1.000  H
  C82      1.0000 0.54442  0.90941  0.23688  Biso   1.000  C
  H123     1.0000 0.52285  0.81669  0.26511  Biso   1.000  H
  H124     1.0000 0.45980  0.82479  0.20989  Biso   1.000  H
  C83      1.0000 0.19846  0.91830  0.29541  Biso   1.000  C
  C84      1.0000 0.18077  0.94232  0.38231  Biso   1.000  C
  C85      1.0000 0.56086  0.94529  0.19501  Biso   1.000  C
  C86      1.0000 0.53031  0.93921  0.28180  Biso   1.000  C
  C87      1.0000 0.18105  0.98448  0.28488  Biso   1.000  C
  H125     1.0000 0.21136  0.88820  0.27030  Biso   1.000  H
  H126     1.0000 0.18399  0.92829  0.41550  Biso   1.000  H
  C88      1.0000 0.16083  0.00791  0.37040  Biso   1.000  C
  H127     1.0000 0.56630  0.92478  0.16419  Biso   1.000  H
  C89      1.0000 0.56942  0.01369  0.19971  Biso   1.000  C
  H128     1.0000 0.51758  0.91361  0.30962  Biso   1.000  H
  C90      1.0000 0.53471  0.00692  0.28578  Biso   1.000  C
  O27      1.0000 0.18420  0.01102  0.23748  Biso   1.000  O
  C91      1.0000 0.16152  0.03010  0.32119  Biso   1.000  C
  O28      1.0000 0.14397  0.04928  0.40968  Biso   1.000  O
  O29      1.0000 0.59100  0.04671  0.15678  Biso   1.000  O
  C92      1.0000 0.55616  0.04512  0.24440  Biso   1.000  C
  O30      1.0000 0.52022  0.04310  0.32788  Biso   1.000  O
  C93      1.0000 0.22946  0.97059  0.20038  Biso   1.000  C
  H129     1.0000 0.14918  0.07448  0.31311  Biso   1.000  H
  C94      1.0000 0.11725  0.11689  0.39911  Biso   1.000  C
  C95      1.0000 0.61242  0.11659  0.15889  Biso   1.000  C
  H130     1.0000 0.56145  0.09089  0.24699  Biso   1.000  H
  C96      1.0000 0.49326  0.00731  0.37100  Biso   1.000  C
  H131     1.0000 0.16893  0.93812  0.18839  Biso   1.000  H
  H132     1.0000 0.30155  0.94741  0.21482  Biso   1.000  H
  C97      1.0000 0.25930  0.01231  0.15828  Biso   1.000  C
  H133     1.0000 0.04174  0.12069  0.37720  Biso   1.000  H
  H134     1.0000 0.18167  0.13671  0.38231  Biso   1.000  H
  C98      1.0000 0.10635  0.15158  0.44760  Biso   1.000  C
  H135     1.0000 0.68130  0.12638  0.18339  Biso   1.000  H
  H136     1.0000 0.54170  0.13928  0.16888  Biso   1.000  H
  C99      1.0000 0.63706  0.13868  0.10901  Biso   1.000  C
  H137     1.0000 0.56234  0.98048  0.38389  Biso   1.000  H
  H138     1.0000 0.42415  0.97840  0.36239  Biso   1.000  H
  C100     1.0000 0.46477  0.05669  0.40930  Biso   1.000  C
  H139     1.0000 0.31180  0.98779  0.13810  Biso   1.000  H
  O31      1.0000 0.15446  0.03198  0.12791  Biso   1.000  O
  H140     1.0000 0.30332  0.05110  0.17140  Biso   1.000  H
  O32      1.0000 0.00935  0.12529  0.47140  Biso   1.000  O
  H141     1.0000 0.18161  0.14679  0.46959  Biso   1.000  H
  H142     1.0000 0.09279  0.19839  0.44140  Biso   1.000  H
  O33      1.0000 0.74276  0.10898  0.09390  Biso   1.000  O
  H143     1.0000 0.56817  0.12791  0.08480  Biso   1.000  H
  H144     1.0000 0.64689  0.18628  0.10931  Biso   1.000  H
  O34      1.0000 0.56926  0.09351  0.42531  Biso   1.000  O
  H145     1.0000 0.40093  0.08600  0.39502  Biso   1.000  H
  H146     1.0000 0.43631  0.03420  0.43779  Biso   1.000  H
  C101     1.0000 0.17884  0.07171  0.08600  Biso   1.000  C
  C102     1.0000 0.96883  0.16770  0.50898  Biso   1.000  C
  C103     1.0000 0.77669  0.13611  0.04950  Biso   1.000  C
  C104     1.0000 0.55009  0.14150  0.46230  Biso   1.000  C
  C105     1.0000 0.07462  0.08382  0.05251  Biso   1.000  C
  H147     1.0000 0.21288  0.11348  0.09829  Biso   1.000  H
  H148     1.0000 0.23902  0.04962  0.06819  Biso   1.000  H
  C106     1.0000 0.85723  0.20328  0.49102  Biso   1.000  C
  H149     1.0000 0.95473  0.14150  0.53812  Biso   1.000  H
  H150     1.0000 0.03237  0.19948  0.51940  Biso   1.000  H
  C107     1.0000 0.87284  0.10611  0.03071  Biso   1.000  C
  H151     1.0000 0.70722  0.13438  0.02409  Biso   1.000  H
  H152     1.0000 0.79680  0.18228  0.05552  Biso   1.000  H
  H153     1.0000 0.54694  0.12000  0.49459  Biso   1.000  H
  H154     1.0000 0.47319  0.16369  0.45332  Biso   1.000  H
  C108     1.0000 0.64979  0.18989  0.46591  Biso   1.000  C
  O35      1.0000 0.97264  0.09232  0.06319  Biso   1.000  O
  H155     1.0000 0.09345  0.12252  0.03342  Biso   1.000  H
  H156     1.0000 0.06916  0.04710  0.02902  Biso   1.000  H
  O36      1.0000 0.76048  0.15880  0.48249  Biso   1.000  O
  H157     1.0000 0.83926  0.23580  0.51579  Biso   1.000  H
  H158     1.0000 0.86815  0.22641  0.46008  Biso   1.000  H
  H159     1.0000 0.84386  0.06499  0.01500  Biso   1.000  H
  H160     1.0000 0.89814  0.13419  0.00429  Biso   1.000  H
  H161     1.0000 0.65509  0.20981  0.43321  Biso   1.000  H
  H162     1.0000 0.63370  0.22468  0.48921  Biso   1.000  H
  C109     1.0000 0.10794  0.30712  0.70351  Biso   1.000  C
  C110     1.0000 0.00886  0.28582  0.66930  Biso   1.000  C
  H163     1.0000 0.07165  0.33742  0.72561  Biso   1.000  H
  H164     1.0000 0.15553  0.33450  0.68321  Biso   1.000  H
  C111     1.0000 0.18799  0.27579  0.73271  Biso   1.000  C
  H165     1.0000 0.03444  0.29402  0.63641  Biso   1.000  H
  H166     1.0000 0.94508  0.31770  0.67310  Biso   1.000  H
  C112     1.0000 0.95319  0.22888  0.66509  Biso   1.000  C
  C113     1.0000 0.29878  0.29808  0.76132  Biso   1.000  C
  H167     1.0000 0.14218  0.25518  0.75741  Biso   1.000  H
  H168     1.0000 0.21360  0.23991  0.71230  Biso   1.000  H
  H169     1.0000 0.01721  0.19612  0.66979  Biso   1.000  H
  O37      1.0000 0.87766  0.20689  0.62769  Biso   1.000  O
  H170     1.0000 0.90916  0.22582  0.69448  Biso   1.000  H
  C114     1.0000 0.36997  0.26081  0.79428  Biso   1.000  C
  H171     1.0000 0.27681  0.33668  0.77981  Biso   1.000  H
  H172     1.0000 0.35080  0.31389  0.73688  Biso   1.000  H
  C115     1.0000 0.77998  0.17442  0.64201  Biso   1.000  C
  O38      1.0000 0.36689  0.19038  0.78601  Biso   1.000  O
  H173     1.0000 0.45319  0.27559  0.79398  Biso   1.000  H
  H174     1.0000 0.34685  0.26921  0.82758  Biso   1.000  H
  C116     1.0000 0.80385  0.10211  0.65479  Biso   1.000  C
  H175     1.0000 0.75379  0.19641  0.67122  Biso   1.000  H
  H176     1.0000 0.71399  0.17709  0.61510  Biso   1.000  H
  C117     1.0000 0.46820  0.16438  0.76759  Biso   1.000  C
  C118     1.0000 0.80151  0.08170  0.70460  Biso   1.000  C
  C119     1.0000 0.81920  0.05768  0.61769  Biso   1.000  C
  C120     1.0000 0.45554  0.09059  0.76308  Biso   1.000  C
  H177     1.0000 0.47702  0.18331  0.73489  Biso   1.000  H
  H178     1.0000 0.54016  0.17521  0.79011  Biso   1.000  H
  C121     1.0000 0.81891  0.01552  0.71508  Biso   1.000  C
  H179     1.0000 0.78861  0.11180  0.72970  Biso   1.000  H
  C122     1.0000 0.83914  0.99209  0.62961  Biso   1.000  C
  H180     1.0000 0.81597  0.07171  0.58450  Biso   1.000  H
  C123     1.0000 0.43910  0.05471  0.80499  Biso   1.000  C
  C124     1.0000 0.46965  0.06079  0.71820  Biso   1.000  C
  O39      1.0000 0.81575  0.98898  0.76248  Biso   1.000  O
  C125     1.0000 0.83845  0.96990  0.67881  Biso   1.000  C
  O40      1.0000 0.85599  0.95072  0.59033  Biso   1.000  O
  H181     1.0000 0.43367  0.07522  0.83582  Biso   1.000  H
  C126     1.0000 0.43055  0.98631  0.80030  Biso   1.000  C
  H182     1.0000 0.48238  0.08639  0.69039  Biso   1.000  H
  C127     1.0000 0.46525  0.99308  0.71418  Biso   1.000  C
  C128     1.0000 0.77050  0.02941  0.79958  Biso   1.000  C
  H183     1.0000 0.85078  0.92552  0.68689  Biso   1.000  H
  C129     1.0000 0.88271  0.88311  0.60089  Biso   1.000  C
  O41      1.0000 0.40895  0.95329  0.84318  Biso   1.000  O
  C130     1.0000 0.44381  0.95488  0.75560  Biso   1.000  C
  O42      1.0000 0.47973  0.95690  0.67208  Biso   1.000  O
  C131     1.0000 0.74066  0.98769  0.84168  Biso   1.000  C
  H184     1.0000 0.83103  0.06188  0.81161  Biso   1.000  H
  H185     1.0000 0.69832  0.05259  0.78518  Biso   1.000  H
  H186     1.0000 0.95814  0.87931  0.62280  Biso   1.000  H
  H187     1.0000 0.81829  0.86329  0.61769  Biso   1.000  H
  C132     1.0000 0.89362  0.84842  0.55240  Biso   1.000  C
  C133     1.0000 0.38754  0.88341  0.84112  Biso   1.000  C
  H188     1.0000 0.43843  0.90911  0.75301  Biso   1.000  H
  C134     1.0000 0.50670  0.99269  0.62900  Biso   1.000  C
  O43      1.0000 0.84542  0.96802  0.87209  Biso   1.000  O
  H189     1.0000 0.69665  0.94890  0.82860  Biso   1.000  H
  H190     1.0000 0.68816  0.01221  0.86190  Biso   1.000  H
  O44      1.0000 0.99062  0.87471  0.52861  Biso   1.000  O
  H191     1.0000 0.81836  0.85321  0.53041  Biso   1.000  H
  H192     1.0000 0.90718  0.80161  0.55860  Biso   1.000  H
  H193     1.0000 0.31866  0.87362  0.81661  Biso   1.000  H
  H194     1.0000 0.45826  0.86072  0.83108  Biso   1.000  H
  C135     1.0000 0.36291  0.86132  0.89100  Biso   1.000  C
  H195     1.0000 0.43754  0.01952  0.61611  Biso   1.000  H
  H196     1.0000 0.57582  0.02160  0.63761  Biso   1.000  H
  C136     1.0000 0.53519  0.94331  0.59070  Biso   1.000  C
  C137     1.0000 0.82113  0.92829  0.91400  Biso   1.000  C
  C138     1.0000 0.03104  0.83230  0.49102  Biso   1.000  C
  O45      1.0000 0.25721  0.89102  0.90611  Biso   1.000  O
  H197     1.0000 0.43180  0.87209  0.91520  Biso   1.000  H
  H198     1.0000 0.35307  0.81372  0.89070  Biso   1.000  H
  O46      1.0000 0.43070  0.90649  0.57469  Biso   1.000  O
  H199     1.0000 0.59903  0.91400  0.60499  Biso   1.000  H
  H200     1.0000 0.56365  0.96580  0.56221  Biso   1.000  H
  C139     1.0000 0.92534  0.91618  0.94749  Biso   1.000  C
  H201     1.0000 0.78708  0.88652  0.90171  Biso   1.000  H
  H202     1.0000 0.76094  0.95038  0.93178  Biso   1.000  H
  H203     1.0000 0.96759  0.80052  0.48061  Biso   1.000  H
  H204     1.0000 0.04524  0.85850  0.46189  Biso   1.000  H
  C140     1.0000 0.14274  0.79672  0.50898  Biso   1.000  C
  C141     1.0000 0.22327  0.86389  0.95050  Biso   1.000  C
  C142     1.0000 0.44987  0.85850  0.53770  Biso   1.000  C
  H205     1.0000 0.90652  0.87748  0.96659  Biso   1.000  H
  H206     1.0000 0.93071  0.95290  0.97098  Biso   1.000  H
  O47      1.0000 0.02733  0.90768  0.93682  Biso   1.000  O
  O48      1.0000 0.23948  0.84120  0.51752  Biso   1.000  O
  H207     1.0000 0.16070  0.76420  0.48421  Biso   1.000  H
  H208     1.0000 0.13181  0.77359  0.53988  Biso   1.000  H
  C143     1.0000 0.12712  0.89389  0.96929  Biso   1.000  C
  H209     1.0000 0.29275  0.86562  0.97591  Biso   1.000  H
  H210     1.0000 0.20317  0.81772  0.94448  Biso   1.000  H
  C144     1.0000 0.35018  0.81011  0.53409  Biso   1.000  C
  H211     1.0000 0.45294  0.88000  0.50541  Biso   1.000  H
  H212     1.0000 0.52677  0.83631  0.54669  Biso   1.000  H
  H213     1.0000 0.15610  0.93501  0.98500  Biso   1.000  H
  H214     1.0000 0.10182  0.86581  0.99568  Biso   1.000  H
  H215     1.0000 0.34487  0.79019  0.56680  Biso   1.000  H
  H216     1.0000 0.36627  0.77532  0.51079  Biso   1.000  H
