data_image0
_cell_length_a       17.269
_cell_length_b       19.311
_cell_length_c       21.265
_cell_angle_alpha    90
_cell_angle_beta     112.57
_cell_angle_gamma    90

_symmetry_space_group_name_H-M    "P 1"
_symmetry_int_tables_number       1

loop_
  _symmetry_equiv_pos_as_xyz
  'x, y, z'

loop_
  _atom_site_label
  _atom_site_occupancy
  _atom_site_fract_x
  _atom_site_fract_y
  _atom_site_fract_z
  _atom_site_thermal_displace_type
  _atom_site_B_iso_or_equiv
  _atom_site_type_symbol
  C1       1.0000 0.57010  0.39578  0.32262  Biso   1.000  C
  O1       1.0000 0.64843  0.36352  0.34131  Biso   1.000  O
  H1       1.0000 0.52573  0.36171  0.30530  Biso   1.000  H
  H2       1.0000 0.56565  0.41831  0.36183  Biso   1.000  H
  C2       1.0000 0.56230  0.44788  0.26899  Biso   1.000  C
  C3       1.0000 0.66824  0.32329  0.40002  Biso   1.000  C
  O2       1.0000 0.55682  0.41189  0.20849  Biso   1.000  O
  H3       1.0000 0.61063  0.47828  0.28412  Biso   1.000  H
  H4       1.0000 0.51240  0.47579  0.25982  Biso   1.000  H
  C4       1.0000 0.75031  0.28492  0.41892  Biso   1.000  C
  H5       1.0000 0.67124  0.35311  0.43761  Biso   1.000  H
  H6       1.0000 0.62374  0.28999  0.39310  Biso   1.000  H
  C5       1.0000 0.54141  0.45591  0.15481  Biso   1.000  C
  O3       1.0000 0.81531  0.33339  0.43552  Biso   1.000  O
  H7       1.0000 0.74954  0.25659  0.38103  Biso   1.000  H
  H8       1.0000 0.75883  0.25478  0.45752  Biso   1.000  H
  H9       1.0000 0.48502  0.47408  0.14198  Biso   1.000  H
  H10      1.0000 0.57992  0.49459  0.16989  Biso   1.000  H
  C6       1.0000 0.54862  0.42732  0.09620  Biso   1.000  C
  C7       1.0000 0.89194  0.30578  0.45492  Biso   1.000  C
  O4       1.0000 0.63100  0.40019  0.11000  Biso   1.000  O
  H11      1.0000 0.50768  0.39040  0.07868  Biso   1.000  H
  H12      1.0000 0.53590  0.46269  0.06131  Biso   1.000  H
  C8       1.0000 0.95711  0.35229  0.46770  Biso   1.000  C
  C9       1.0000 0.91072  0.23531  0.46501  Biso   1.000  C
  C10      1.0000 0.66641  0.42282  0.06508  Biso   1.000  C
  H13      1.0000 0.94581  0.39951  0.46169  Biso   1.000  H
  C11      1.0000 0.03644  0.33002  0.48879  Biso   1.000  C
  C12      1.0000 0.99441  0.21371  0.48782  Biso   1.000  C
  H14      1.0000 0.86801  0.20299  0.45660  Biso   1.000  H
  H15      1.0000 0.63532  0.40402  0.02001  Biso   1.000  H
  H16      1.0000 0.66390  0.47289  0.06198  Biso   1.000  H
  C13      1.0000 0.75471  0.39951  0.08958  Biso   1.000  C
  O5       1.0000 0.10646  0.36948  0.50081  Biso   1.000  O
  C14      1.0000 0.05632  0.26021  0.49862  Biso   1.000  C
  C15      1.0000 0.01036  0.13790  0.49963  Biso   1.000  C
  O6       1.0000 0.75399  0.32790  0.08561  Biso   1.000  O
  H17      1.0000 0.78477  0.41432  0.13628  Biso   1.000  H
  H18      1.0000 0.78222  0.41898  0.06152  Biso   1.000  H
  C16      1.0000 0.09942  0.44079  0.50809  Biso   1.000  C
  H19      1.0000 0.11176  0.24571  0.51252  Biso   1.000  H
  H20      1.0000 0.97560  0.11247  0.45930  Biso   1.000  H
  H21      1.0000 0.99552  0.12319  0.53722  Biso   1.000  H
  O7       1.0000 0.09463  0.12319  0.51461  Biso   1.000  O
  C17      1.0000 0.83043  0.29579  0.10582  Biso   1.000  C
  H22      1.0000 0.06133  0.46088  0.46572  Biso   1.000  H
  H23      1.0000 0.07804  0.45042  0.54323  Biso   1.000  H
  C18      1.0000 0.18434  0.47041  0.52713  Biso   1.000  C
  C19      1.0000 0.10844  0.05039  0.51211  Biso   1.000  C
  C20      1.0000 0.90629  0.32981  0.13180  Biso   1.000  C
  C21      1.0000 0.82991  0.22329  0.09920  Biso   1.000  C
  O8       1.0000 0.21000  0.46730  0.47300  Biso   1.000  O
  H24      1.0000 0.22357  0.44498  0.56543  Biso   1.000  H
  H25      1.0000 0.18411  0.51831  0.54099  Biso   1.000  H
  C22      1.0000 0.07332  0.02501  0.44270  Biso   1.000  C
  H26      1.0000 0.16822  0.04101  0.53162  Biso   1.000  H
  H27      1.0000 0.08286  0.02620  0.53920  Biso   1.000  H
  H28      1.0000 0.90883  0.37751  0.13791  Biso   1.000  H
  C23      1.0000 0.97941  0.29061  0.14891  Biso   1.000  C
  C24      1.0000 0.90147  0.18761  0.11769  Biso   1.000  C
  H29      1.0000 0.77901  0.19989  0.08169  Biso   1.000  H
  C25      1.0000 0.29096  0.48822  0.48772  Biso   1.000  C
  C26      1.0000 0.03852  0.01372  0.38683  Biso   1.000  C
  C27      1.0000 0.97803  0.21848  0.14392  Biso   1.000  C
  O9       1.0000 0.05200  0.32821  0.17361  Biso   1.000  O
  C28      1.0000 0.89600  0.11128  0.11102  Biso   1.000  C
  H30      1.0000 0.30074  0.53141  0.51282  Biso   1.000  H
  H31      1.0000 0.32892  0.45378  0.51670  Biso   1.000  H
  C29      1.0000 0.30952  0.49780  0.42763  Biso   1.000  C
  C30      1.0000 0.99266  0.00539  0.31773  Biso   1.000  C
  H32      1.0000 0.02734  0.19279  0.15782  Biso   1.000  H
  C31      1.0000 0.12815  0.29320  0.18293  Biso   1.000  C
  O10      1.0000 0.89133  0.08161  0.17060  Biso   1.000  O
  H33      1.0000 0.94499  0.09363  0.10440  Biso   1.000  H
  H34      1.0000 0.84669  0.09860  0.07150  Biso   1.000  H
  O11      1.0000 0.30053  0.43892  0.39070  Biso   1.000  O
  H35      1.0000 0.36675  0.51442  0.44112  Biso   1.000  H
  H36      1.0000 0.27254  0.53312  0.39911  Biso   1.000  H
  C32      1.0000 0.95815  0.00652  0.25733  Biso   1.000  C
  C33      1.0000 0.19552  0.34680  0.19683  Biso   1.000  C
  H37      1.0000 0.14240  0.26120  0.22092  Biso   1.000  H
  H38      1.0000 0.12203  0.26710  0.14229  Biso   1.000  H
  C34      1.0000 0.91980  0.01279  0.18649  Biso   1.000  C
  C35      1.0000 0.31531  0.45130  0.33020  Biso   1.000  C
  O12      1.0000 0.22593  0.36793  0.26532  Biso   1.000  O
  H39      1.0000 0.17319  0.38662  0.16760  Biso   1.000  H
  H40      1.0000 0.24131  0.32790  0.18639  Biso   1.000  H
  H41      1.0000 0.95970  0.00181  0.16602  Biso   1.000  H
  H42      1.0000 0.87300  0.98100  0.16882  Biso   1.000  H
  H43      1.0000 0.37532  0.45782  0.34421  Biso   1.000  H
  H44      1.0000 0.28931  0.49542  0.31233  Biso   1.000  H
  C36      1.0000 0.29292  0.40909  0.28050  Biso   1.000  C
  H45      1.0000 0.28444  0.43628  0.24001  Biso   1.000  H
  H46      1.0000 0.34056  0.37921  0.28732  Biso   1.000  H
  C37      1.0000 0.42996  0.60422  0.67742  Biso   1.000  C
  O13      1.0000 0.35163  0.63648  0.65873  Biso   1.000  O
  H47      1.0000 0.47433  0.63829  0.69473  Biso   1.000  H
  H48      1.0000 0.43441  0.58169  0.63820  Biso   1.000  H
  C38      1.0000 0.43773  0.55212  0.73099  Biso   1.000  C
  C39      1.0000 0.33182  0.67671  0.60001  Biso   1.000  C
  O14      1.0000 0.44324  0.58811  0.79154  Biso   1.000  O
  H49      1.0000 0.38943  0.52172  0.71592  Biso   1.000  H
  H50      1.0000 0.48766  0.52421  0.74021  Biso   1.000  H
  C40      1.0000 0.24975  0.71508  0.58112  Biso   1.000  C
  H51      1.0000 0.32882  0.64689  0.56243  Biso   1.000  H
  H52      1.0000 0.37638  0.71001  0.60694  Biso   1.000  H
  C41      1.0000 0.45865  0.54409  0.84522  Biso   1.000  C
  O15      1.0000 0.18475  0.66661  0.56451  Biso   1.000  O
  H53      1.0000 0.25052  0.74341  0.61901  Biso   1.000  H
  H54      1.0000 0.24123  0.74522  0.54251  Biso   1.000  H
  H55      1.0000 0.51507  0.52592  0.85800  Biso   1.000  H
  H56      1.0000 0.42012  0.50541  0.83009  Biso   1.000  H
  C42      1.0000 0.45150  0.57268  0.90383  Biso   1.000  C
  C43      1.0000 0.10812  0.69422  0.54511  Biso   1.000  C
  O16      1.0000 0.36906  0.59981  0.89003  Biso   1.000  O
  H57      1.0000 0.49235  0.60960  0.92130  Biso   1.000  H
  H58      1.0000 0.46416  0.53731  0.93872  Biso   1.000  H
  C44      1.0000 0.04295  0.64771  0.53233  Biso   1.000  C
  C45      1.0000 0.08934  0.76469  0.53503  Biso   1.000  C
  C46      1.0000 0.33363  0.57718  0.93490  Biso   1.000  C
  H59      1.0000 0.05422  0.60049  0.53829  Biso   1.000  H
  C47      1.0000 0.96365  0.66998  0.51120  Biso   1.000  C
  C48      1.0000 0.00565  0.78629  0.51221  Biso   1.000  C
  H60      1.0000 0.13205  0.79701  0.54343  Biso   1.000  H
  H61      1.0000 0.36474  0.59598  0.98002  Biso   1.000  H
  H62      1.0000 0.33614  0.52711  0.93801  Biso   1.000  H
  C49      1.0000 0.24538  0.60049  0.91040  Biso   1.000  C
  O17      1.0000 0.89366  0.63052  0.49923  Biso   1.000  O
  C50      1.0000 0.94374  0.73979  0.50142  Biso   1.000  C
  C51      1.0000 0.98970  0.86210  0.50040  Biso   1.000  C
  O18      1.0000 0.24607  0.67210  0.91443  Biso   1.000  O
  H63      1.0000 0.21526  0.58568  0.86370  Biso   1.000  H
  H64      1.0000 0.21784  0.58102  0.93851  Biso   1.000  H
  C52      1.0000 0.90062  0.55921  0.49189  Biso   1.000  C
  H65      1.0000 0.88835  0.75429  0.48751  Biso   1.000  H
  H66      1.0000 0.02446  0.88753  0.54073  Biso   1.000  H
  H67      1.0000 0.00454  0.87681  0.46282  Biso   1.000  H
  O19      1.0000 0.90543  0.87681  0.48543  Biso   1.000  O
  C53      1.0000 0.16963  0.70421  0.89421  Biso   1.000  C
  H68      1.0000 0.93873  0.53912  0.53432  Biso   1.000  H
  H69      1.0000 0.92202  0.54958  0.45681  Biso   1.000  H
  C54      1.0000 0.81572  0.52959  0.47290  Biso   1.000  C
  C55      1.0000 0.89162  0.94961  0.48792  Biso   1.000  C
  C56      1.0000 0.09377  0.67019  0.86824  Biso   1.000  C
  C57      1.0000 0.17015  0.77671  0.90083  Biso   1.000  C
  O20      1.0000 0.79006  0.53270  0.52703  Biso   1.000  O
  H70      1.0000 0.77654  0.55502  0.43460  Biso   1.000  H
  H71      1.0000 0.81593  0.48169  0.45900  Biso   1.000  H
  C58      1.0000 0.92674  0.97499  0.55733  Biso   1.000  C
  H72      1.0000 0.83184  0.95899  0.46842  Biso   1.000  H
  H73      1.0000 0.91726  0.97380  0.46083  Biso   1.000  H
  H74      1.0000 0.09129  0.62249  0.86213  Biso   1.000  H
  C59      1.0000 0.02065  0.70939  0.85113  Biso   1.000  C
  C60      1.0000 0.09859  0.81239  0.88234  Biso   1.000  C
  H75      1.0000 0.22103  0.80011  0.91830  Biso   1.000  H
  C61      1.0000 0.70915  0.51178  0.51232  Biso   1.000  C
  C62      1.0000 0.96154  0.98628  0.61320  Biso   1.000  C
  C63      1.0000 0.02209  0.78152  0.85612  Biso   1.000  C
  O21      1.0000 0.94806  0.67179  0.82643  Biso   1.000  O
  C64      1.0000 0.10406  0.88872  0.88901  Biso   1.000  C
  H76      1.0000 0.69932  0.46859  0.48721  Biso   1.000  H
  H77      1.0000 0.67111  0.54622  0.48329  Biso   1.000  H
  C65      1.0000 0.69054  0.50220  0.57241  Biso   1.000  C
  C66      1.0000 0.00746  0.99461  0.68231  Biso   1.000  C
  H78      1.0000 0.97278  0.80721  0.84221  Biso   1.000  H
  C67      1.0000 0.87197  0.70680  0.81711  Biso   1.000  C
  O22      1.0000 0.10879  0.91839  0.82943  Biso   1.000  O
  H79      1.0000 0.05507  0.90637  0.89564  Biso   1.000  H
  H80      1.0000 0.15337  0.90140  0.92853  Biso   1.000  H
  O23      1.0000 0.69953  0.56108  0.60933  Biso   1.000  O
  H81      1.0000 0.63331  0.48558  0.55891  Biso   1.000  H
  H82      1.0000 0.72752  0.46688  0.60093  Biso   1.000  H
  C68      1.0000 0.04197  0.99348  0.74270  Biso   1.000  C
  C69      1.0000 0.80454  0.65320  0.80320  Biso   1.000  C
  H83      1.0000 0.85766  0.73880  0.77912  Biso   1.000  H
  H84      1.0000 0.87806  0.73290  0.85770  Biso   1.000  H
  C70      1.0000 0.08026  0.98721  0.81354  Biso   1.000  C
  C71      1.0000 0.68475  0.54870  0.66983  Biso   1.000  C
  O24      1.0000 0.77413  0.63207  0.73471  Biso   1.000  O
  H85      1.0000 0.82687  0.61338  0.83244  Biso   1.000  H
  H86      1.0000 0.75872  0.67210  0.81359  Biso   1.000  H
  H87      1.0000 0.04036  0.99819  0.83401  Biso   1.000  H
  H88      1.0000 0.12706  0.01900  0.83121  Biso   1.000  H
  H89      1.0000 0.62474  0.54218  0.65582  Biso   1.000  H
  H90      1.0000 0.71075  0.50458  0.68770  Biso   1.000  H
  C72      1.0000 0.70714  0.59091  0.71953  Biso   1.000  C
  H91      1.0000 0.71568  0.56372  0.76002  Biso   1.000  H
  H92      1.0000 0.65956  0.62079  0.71271  Biso   1.000  H
  O25      1.0000 0.89132  0.41841  0.67059  Biso   1.000  O
  C73      1.0000 0.89605  0.38869  0.61101  Biso   1.000  C
  C74      1.0000 0.91987  0.48718  0.68653  Biso   1.000  C
  C75      1.0000 0.90155  0.31241  0.61773  Biso   1.000  C
  H93      1.0000 0.94504  0.40640  0.60439  Biso   1.000  H
  H94      1.0000 0.84674  0.40138  0.57149  Biso   1.000  H
  H95      1.0000 0.95974  0.49821  0.66601  Biso   1.000  H
  H96      1.0000 0.87305  0.51898  0.66881  Biso   1.000  H
  C76      1.0000 0.95814  0.49350  0.75732  Biso   1.000  C
  C77      1.0000 0.82995  0.27668  0.59920  Biso   1.000  C
  C78      1.0000 0.97802  0.28150  0.64391  Biso   1.000  C
  C79      1.0000 0.99265  0.49459  0.81772  Biso   1.000  C
  C80      1.0000 0.83042  0.20418  0.60582  Biso   1.000  C
  H97      1.0000 0.77902  0.30009  0.58173  Biso   1.000  H
  C81      1.0000 0.97945  0.20941  0.64890  Biso   1.000  C
  H98      1.0000 0.02733  0.30718  0.65781  Biso   1.000  H
  C82      1.0000 0.03857  0.48630  0.88683  Biso   1.000  C
  O26      1.0000 0.75404  0.17208  0.58560  Biso   1.000  O
  C83      1.0000 0.90636  0.17021  0.63184  Biso   1.000  C
  O27      1.0000 0.05204  0.17182  0.67360  Biso   1.000  O
  C84      1.0000 0.07339  0.47501  0.94274  Biso   1.000  C
  C85      1.0000 0.75472  0.10051  0.58962  Biso   1.000  C
  H99      1.0000 0.90882  0.12252  0.63790  Biso   1.000  H
  C86      1.0000 0.12814  0.20683  0.68292  Biso   1.000  C
  C87      1.0000 0.10835  0.44959  0.01205  Biso   1.000  C
  C88      1.0000 0.66642  0.07721  0.56513  Biso   1.000  C
  H100     1.0000 0.78485  0.08570  0.63632  Biso   1.000  H
  H101     1.0000 0.78226  0.08099  0.56151  Biso   1.000  H
  C89      1.0000 0.19557  0.15318  0.69682  Biso   1.000  C
  H102     1.0000 0.14244  0.23878  0.72091  Biso   1.000  H
  H103     1.0000 0.12204  0.23292  0.64233  Biso   1.000  H
  O28      1.0000 0.09459  0.37678  0.01455  Biso   1.000  O
  H104     1.0000 0.16818  0.45901  0.03156  Biso   1.000  H
  H105     1.0000 0.08279  0.47382  0.03920  Biso   1.000  H
  O29      1.0000 0.63105  0.09979  0.60999  Biso   1.000  O
  H106     1.0000 0.63531  0.09601  0.52001  Biso   1.000  H
  H107     1.0000 0.66397  0.02708  0.56202  Biso   1.000  H
  O30      1.0000 0.22597  0.13210  0.76532  Biso   1.000  O
  H108     1.0000 0.17327  0.11341  0.66764  Biso   1.000  H
  H109     1.0000 0.24133  0.17208  0.68643  Biso   1.000  H
  C90      1.0000 0.01035  0.36213  0.99963  Biso   1.000  C
  C91      1.0000 0.54861  0.07270  0.59619  Biso   1.000  C
  C92      1.0000 0.29296  0.09088  0.78049  Biso   1.000  C
  C93      1.0000 0.99446  0.28631  0.98781  Biso   1.000  C
  H110     1.0000 0.97568  0.38750  0.95934  Biso   1.000  H
  H111     1.0000 0.99549  0.37678  0.03716  Biso   1.000  H
  C94      1.0000 0.54145  0.04412  0.65481  Biso   1.000  C
  H112     1.0000 0.50775  0.10957  0.57872  Biso   1.000  H
  H113     1.0000 0.53595  0.03728  0.56131  Biso   1.000  H
  C95      1.0000 0.31535  0.04868  0.83020  Biso   1.000  C
  H114     1.0000 0.28443  0.06369  0.74001  Biso   1.000  H
  H115     1.0000 0.34055  0.12081  0.78732  Biso   1.000  H
  C96      1.0000 0.91077  0.26472  0.96500  Biso   1.000  C
  C97      1.0000 0.05637  0.23981  0.99861  Biso   1.000  C
  O31      1.0000 0.55689  0.08808  0.70853  Biso   1.000  O
  H116     1.0000 0.48503  0.02589  0.64202  Biso   1.000  H
  H117     1.0000 0.57993  0.00539  0.66993  Biso   1.000  H
  O32      1.0000 0.30058  0.06111  0.89070  Biso   1.000  O
  H118     1.0000 0.37536  0.04220  0.84420  Biso   1.000  H
  H119     1.0000 0.28936  0.00461  0.81232  Biso   1.000  H
  C98      1.0000 0.89199  0.19419  0.95491  Biso   1.000  C
  H120     1.0000 0.86808  0.29698  0.95664  Biso   1.000  H
  C99      1.0000 0.03646  0.17001  0.98883  Biso   1.000  C
  H121     1.0000 0.11167  0.25431  0.01246  Biso   1.000  H
  C100     1.0000 0.56238  0.05209  0.76903  Biso   1.000  C
  C101     1.0000 0.30957  0.00217  0.92762  Biso   1.000  C
  O33      1.0000 0.81536  0.16659  0.93551  Biso   1.000  O
  C102     1.0000 0.95718  0.14769  0.96775  Biso   1.000  C
  O34      1.0000 0.10637  0.13050  0.00075  Biso   1.000  O
  C103     1.0000 0.57015  0.10419  0.82261  Biso   1.000  C
  H122     1.0000 0.61067  0.02170  0.78411  Biso   1.000  H
  H123     1.0000 0.51245  0.02418  0.75982  Biso   1.000  H
  H124     1.0000 0.36673  0.98560  0.94111  Biso   1.000  H
  H125     1.0000 0.27252  0.96691  0.89910  Biso   1.000  H
  C104     1.0000 0.29095  0.01181  0.98771  Biso   1.000  C
  C105     1.0000 0.75036  0.21511  0.91891  Biso   1.000  C
  H126     1.0000 0.94588  0.10051  0.96174  Biso   1.000  H
  C106     1.0000 0.09941  0.05919  0.00808  Biso   1.000  C
  O35      1.0000 0.64847  0.13650  0.84130  Biso   1.000  O
  H127     1.0000 0.52572  0.13831  0.80529  Biso   1.000  H
  H128     1.0000 0.56564  0.08172  0.86182  Biso   1.000  H
  O36      1.0000 0.21007  0.03268  0.97304  Biso   1.000  O
  H129     1.0000 0.30071  0.96862  0.01277  Biso   1.000  H
  H130     1.0000 0.32891  0.04619  0.01669  Biso   1.000  H
  C107     1.0000 0.66823  0.17669  0.90001  Biso   1.000  C
  H131     1.0000 0.74959  0.24338  0.88102  Biso   1.000  H
  H132     1.0000 0.75887  0.24520  0.95751  Biso   1.000  H
  H133     1.0000 0.06138  0.03910  0.96571  Biso   1.000  H
  H134     1.0000 0.07801  0.04961  0.04317  Biso   1.000  H
  C108     1.0000 0.18430  0.02962  0.02708  Biso   1.000  C
  H135     1.0000 0.67123  0.14691  0.93760  Biso   1.000  H
  H136     1.0000 0.62375  0.20998  0.89314  Biso   1.000  H
  H137     1.0000 0.18410  0.98172  0.04098  Biso   1.000  H
  H138     1.0000 0.22348  0.05499  0.06537  Biso   1.000  H
  O37      1.0000 0.10871  0.58159  0.32939  Biso   1.000  O
  C109     1.0000 0.08024  0.51282  0.31350  Biso   1.000  C
  C110     1.0000 0.10401  0.61131  0.38902  Biso   1.000  C
  C111     1.0000 0.04192  0.50650  0.24271  Biso   1.000  C
  H139     1.0000 0.04032  0.50179  0.33402  Biso   1.000  H
  H140     1.0000 0.12701  0.48102  0.33122  Biso   1.000  H
  H141     1.0000 0.05500  0.59360  0.39559  Biso   1.000  H
  H142     1.0000 0.15329  0.59862  0.42849  Biso   1.000  H
  C112     1.0000 0.09851  0.68759  0.38230  Biso   1.000  C
  C113     1.0000 0.00741  0.50541  0.18232  Biso   1.000  C
  C114     1.0000 0.02204  0.71850  0.35613  Biso   1.000  C
  C115     1.0000 0.17014  0.72332  0.40079  Biso   1.000  C
  C116     1.0000 0.96149  0.51370  0.11321  Biso   1.000  C
  C117     1.0000 0.02064  0.79059  0.35108  Biso   1.000  C
  H143     1.0000 0.97273  0.69282  0.34222  Biso   1.000  H
  C118     1.0000 0.16964  0.79582  0.39422  Biso   1.000  C
  H144     1.0000 0.22104  0.69991  0.41831  Biso   1.000  H
  C119     1.0000 0.92672  0.52499  0.05729  Biso   1.000  C
  C120     1.0000 0.09370  0.82979  0.36819  Biso   1.000  C
  O38      1.0000 0.94799  0.82818  0.32638  Biso   1.000  O
  O39      1.0000 0.24600  0.82792  0.41438  Biso   1.000  O
  C121     1.0000 0.89168  0.55041  0.98793  Biso   1.000  C
  H145     1.0000 0.09122  0.87748  0.36208  Biso   1.000  H
  C122     1.0000 0.87192  0.79317  0.31712  Biso   1.000  C
  C123     1.0000 0.24533  0.89949  0.41041  Biso   1.000  C
  O40      1.0000 0.90544  0.62322  0.98544  Biso   1.000  O
  H146     1.0000 0.83185  0.54099  0.96843  Biso   1.000  H
  H147     1.0000 0.91727  0.52618  0.96084  Biso   1.000  H
  C124     1.0000 0.80455  0.84682  0.30321  Biso   1.000  C
  H148     1.0000 0.85762  0.76122  0.27913  Biso   1.000  H
  H149     1.0000 0.87802  0.76708  0.35770  Biso   1.000  H
  C125     1.0000 0.33364  0.92279  0.43491  Biso   1.000  C
  H150     1.0000 0.21521  0.91430  0.36371  Biso   1.000  H
  H151     1.0000 0.21785  0.91901  0.43852  Biso   1.000  H
  C126     1.0000 0.98971  0.63787  0.00041  Biso   1.000  C
  O41      1.0000 0.77415  0.86790  0.23472  Biso   1.000  O
  H152     1.0000 0.82679  0.88659  0.33239  Biso   1.000  H
  H153     1.0000 0.75873  0.82792  0.31360  Biso   1.000  H
  O42      1.0000 0.36904  0.90021  0.38999  Biso   1.000  O
  H154     1.0000 0.36475  0.90399  0.48003  Biso   1.000  H
  H155     1.0000 0.33615  0.97292  0.43801  Biso   1.000  H
  C127     1.0000 0.00560  0.71369  0.01222  Biso   1.000  C
  H156     1.0000 0.02438  0.61250  0.04069  Biso   1.000  H
  H157     1.0000 0.00457  0.62322  0.96287  Biso   1.000  H
  C128     1.0000 0.70713  0.90912  0.21949  Biso   1.000  C
  C129     1.0000 0.45142  0.92730  0.40379  Biso   1.000  C
  C130     1.0000 0.08927  0.73528  0.03499  Biso   1.000  C
  C131     1.0000 0.94367  0.76019  0.00138  Biso   1.000  C
  C132     1.0000 0.68468  0.95132  0.16979  Biso   1.000  C
  H158     1.0000 0.71563  0.93631  0.26003  Biso   1.000  H
  H159     1.0000 0.65951  0.87919  0.21272  Biso   1.000  H
  C133     1.0000 0.45861  0.95588  0.34523  Biso   1.000  C
  H160     1.0000 0.49231  0.89043  0.42131  Biso   1.000  H
  H161     1.0000 0.46411  0.96272  0.43873  Biso   1.000  H
  C134     1.0000 0.10813  0.80581  0.04512  Biso   1.000  C
  H162     1.0000 0.13198  0.70302  0.04339  Biso   1.000  H
  H163     1.0000 0.88839  0.74569  0.98757  Biso   1.000  H
  C135     1.0000 0.96360  0.82999  0.01120  Biso   1.000  C
  O43      1.0000 0.69952  0.93889  0.10929  Biso   1.000  O
  H164     1.0000 0.62473  0.95780  0.15578  Biso   1.000  H
  H165     1.0000 0.71070  0.99539  0.18771  Biso   1.000  H
  O44      1.0000 0.44323  0.91192  0.29150  Biso   1.000  O
  H166     1.0000 0.51503  0.97411  0.35801  Biso   1.000  H
  H167     1.0000 0.42013  0.99461  0.33010  Biso   1.000  H
  O45      1.0000 0.18470  0.83341  0.06452  Biso   1.000  O
  C136     1.0000 0.04288  0.85231  0.03229  Biso   1.000  C
  O46      1.0000 0.89367  0.86950  0.99924  Biso   1.000  O
  C137     1.0000 0.69049  0.99783  0.07242  Biso   1.000  C
  C138     1.0000 0.43774  0.94791  0.23100  Biso   1.000  C
  C139     1.0000 0.24970  0.78489  0.08113  Biso   1.000  C
  H168     1.0000 0.05418  0.89949  0.03830  Biso   1.000  H
  C140     1.0000 0.90071  0.94081  0.99195  Biso   1.000  C
  C141     1.0000 0.70911  0.98819  0.01232  Biso   1.000  C
  H169     1.0000 0.63333  0.01440  0.05892  Biso   1.000  H
  H170     1.0000 0.72751  0.03309  0.10088  Biso   1.000  H
  C142     1.0000 0.42991  0.89581  0.17743  Biso   1.000  C
  H171     1.0000 0.38945  0.97830  0.21593  Biso   1.000  H
  H172     1.0000 0.48761  0.97582  0.24022  Biso   1.000  H
  H173     1.0000 0.25053  0.75662  0.11901  Biso   1.000  H
  H174     1.0000 0.24119  0.75480  0.04252  Biso   1.000  H
  C143     1.0000 0.33183  0.82331  0.10002  Biso   1.000  C
  H175     1.0000 0.92211  0.95039  0.95687  Biso   1.000  H
  C144     1.0000 0.81576  0.97038  0.97296  Biso   1.000  C
  H176     1.0000 0.93868  0.96090  0.03432  Biso   1.000  H
  O47      1.0000 0.78999  0.96732  0.02699  Biso   1.000  O
  H177     1.0000 0.67121  0.95381  0.98335  Biso   1.000  H
  H178     1.0000 0.69941  0.03138  0.98727  Biso   1.000  H
  O48      1.0000 0.35162  0.86350  0.15869  Biso   1.000  O
  H179     1.0000 0.47432  0.86169  0.19469  Biso   1.000  H
  H180     1.0000 0.43442  0.91828  0.13821  Biso   1.000  H
  H181     1.0000 0.32881  0.85309  0.06238  Biso   1.000  H
  H182     1.0000 0.37631  0.79002  0.10689  Biso   1.000  H
  H183     1.0000 0.77658  0.94501  0.93466  Biso   1.000  H
  H184     1.0000 0.81596  0.01828  0.95906  Biso   1.000  H
