data_image0
_cell_length_a       15.257
_cell_length_b       15.564
_cell_length_c       15.592
_cell_angle_alpha    104.48
_cell_angle_beta     101.07
_cell_angle_gamma    104.33

_symmetry_space_group_name_H-M    "P 1"
_symmetry_int_tables_number       1

loop_
  _symmetry_equiv_pos_as_xyz
  'x, y, z'

loop_
  _atom_site_label
  _atom_site_occupancy
  _atom_site_fract_x
  _atom_site_fract_y
  _atom_site_fract_z
  _atom_site_thermal_displace_type
  _atom_site_B_iso_or_equiv
  _atom_site_type_symbol
  C1       1.0000 0.32753  0.60556  0.60406  Biso   1.000  C
  C2       1.0000 0.23452  0.53386  0.58941  Biso   1.000  C
  H1       1.0000 0.37631  0.57504  0.60131  Biso   1.000  H
  C3       1.0000 0.35192  0.67722  0.69860  Biso   1.000  C
  O1       1.0000 0.32033  0.64978  0.53450  Biso   1.000  O
  C4       1.0000 0.24071  0.48727  0.66489  Biso   1.000  C
  H2       1.0000 0.18731  0.56629  0.59402  Biso   1.000  H
  O2       1.0000 0.20461  0.46546  0.50057  Biso   1.000  O
  C5       1.0000 0.34926  0.62902  0.77381  Biso   1.000  C
  H3       1.0000 0.30772  0.71345  0.69929  Biso   1.000  H
  O3       1.0000 0.44595  0.73825  0.71746  Biso   1.000  O
  H4       1.0000 0.32142  0.70367  0.55720  Biso   1.000  H
  O4       1.0000 0.31056  0.44279  0.66055  Biso   1.000  O
  H5       1.0000 0.18009  0.44042  0.65436  Biso   1.000  H
  O5       1.0000 0.26220  0.55576  0.75172  Biso   1.000  O
  H6       1.0000 0.22621  0.42246  0.50298  Biso   1.000  H
  H7       1.0000 0.40086  0.60195  0.77897  Biso   1.000  H
  C6       1.0000 0.35881  0.69563  0.86766  Biso   1.000  C
  C7       1.0000 0.46027  0.83606  0.74711  Biso   1.000  C
  C8       1.0000 0.28621  0.34733  0.65629  Biso   1.000  C
  H8       1.0000 0.35695  0.66162  0.91197  Biso   1.000  H
  H9       1.0000 0.41922  0.74396  0.88789  Biso   1.000  H
  O6       1.0000 0.28573  0.73766  0.86470  Biso   1.000  O
  H10      1.0000 0.40062  0.84692  0.75248  Biso   1.000  H
  C9       1.0000 0.49334  0.87744  0.67569  Biso   1.000  C
  O7       1.0000 0.52754  0.87772  0.83422  Biso   1.000  O
  C10      1.0000 0.30292  0.29293  0.56890  Biso   1.000  C
  H11      1.0000 0.21971  0.32455  0.65429  Biso   1.000  H
  C11      1.0000 0.34702  0.33603  0.74119  Biso   1.000  C
  H12      1.0000 0.24252  0.70710  0.87957  Biso   1.000  H
  H13      1.0000 0.49794  0.94373  0.69399  Biso   1.000  H
  C12      1.0000 0.58999  0.86963  0.67156  Biso   1.000  C
  O8       1.0000 0.42626  0.83208  0.58858  Biso   1.000  O
  C13      1.0000 0.62172  0.87446  0.83608  Biso   1.000  C
  O9       1.0000 0.23831  0.29655  0.49053  Biso   1.000  O
  C14      1.0000 0.28864  0.19225  0.56656  Biso   1.000  C
  H14      1.0000 0.36743  0.32103  0.56759  Biso   1.000  H
  O10      1.0000 0.33164  0.23936  0.73246  Biso   1.000  O
  H15      1.0000 0.41353  0.36634  0.74787  Biso   1.000  H
  C15      1.0000 0.32101  0.37953  0.82762  Biso   1.000  C
  H16      1.0000 0.58712  0.80386  0.65236  Biso   1.000  H
  C16      1.0000 0.65632  0.91932  0.76727  Biso   1.000  C
  O11      1.0000 0.62265  0.91363  0.60902  Biso   1.000  O
  H17      1.0000 0.39720  0.77923  0.58631  Biso   1.000  H
  H18      1.0000 0.62103  0.80916  0.81902  Biso   1.000  H
  C17      1.0000 0.68192  0.92486  0.93337  Biso   1.000  C
  H19      1.0000 0.25190  0.27378  0.44346  Biso   1.000  H
  C18      1.0000 0.35185  0.18885  0.65360  Biso   1.000  C
  H20      1.0000 0.22290  0.16326  0.56381  Biso   1.000  H
  O12      1.0000 0.30983  0.14145  0.48805  Biso   1.000  O
  H21      1.0000 0.32927  0.44506  0.83477  Biso   1.000  H
  H22      1.0000 0.25535  0.34905  0.82080  Biso   1.000  H
  O13      1.0000 0.37722  0.37151  0.90826  Biso   1.000  O
  H23      1.0000 0.65982  0.98533  0.78571  Biso   1.000  H
  O14      1.0000 0.74694  0.91147  0.76321  Biso   1.000  O
  H24      1.0000 0.58280  0.89264  0.55920  Biso   1.000  H
  H25      1.0000 0.65165  0.90204  0.97617  Biso   1.000  H
  H26      1.0000 0.74246  0.91382  0.94081  Biso   1.000  H
  H27      1.0000 0.74547  0.91335  0.93537  Biso   1.000  H
  H28      1.0000 0.69588  0.99105  0.94906  Biso   1.000  H
  O15      1.0000 0.64914  0.88984  0.99977  Biso   1.000  O
  O16      1.0000 0.69397  0.01851  0.95078  Biso   1.000  O
  H29      1.0000 0.34087  0.12378  0.65230  Biso   1.000  H
  O17      1.0000 0.44680  0.22800  0.65388  Biso   1.000  O
  H30      1.0000 0.26140  0.11493  0.44608  Biso   1.000  H
  H31      1.0000 0.35084  0.32336  0.91762  Biso   1.000  H
  C19      1.0000 0.82611  0.99222  0.80491  Biso   1.000  C
  H32      1.0000 0.69377  0.89177  0.03968  Biso   1.000  H
  H33      1.0000 0.72742  0.04717  0.00321  Biso   1.000  H
  C20      1.0000 0.50956  0.17506  0.66571  Biso   1.000  C
  C21      1.0000 0.88096  0.99965  0.73349  Biso   1.000  C
  O18      1.0000 0.88345  0.98551  0.88466  Biso   1.000  O
  H34      1.0000 0.80535  0.04742  0.82149  Biso   1.000  H
  C22      1.0000 0.55515  0.16824  0.58617  Biso   1.000  C
  H35      1.0000 0.47435  0.11236  0.66351  Biso   1.000  H
  C23      1.0000 0.58432  0.22306  0.75778  Biso   1.000  C
  C24      1.0000 0.91451  0.91496  0.70947  Biso   1.000  C
  H36      1.0000 0.93587  0.05587  0.75998  Biso   1.000  H
  O19      1.0000 0.82310  0.00774  0.65436  Biso   1.000  O
  C25      1.0000 0.91385  0.90443  0.86697  Biso   1.000  C
  C26      1.0000 0.62953  0.12072  0.60048  Biso   1.000  C
  H37      1.0000 0.58462  0.23126  0.58480  Biso   1.000  H
  O20      1.0000 0.48633  0.11616  0.50051  Biso   1.000  O
  H38      1.0000 0.61282  0.28865  0.76321  Biso   1.000  H
  C27      1.0000 0.54445  0.21885  0.83828  Biso   1.000  C
  O21      1.0000 0.65634  0.17902  0.76528  Biso   1.000  O
  H39      1.0000 0.85944  0.85946  0.67961  Biso   1.000  H
  C28      1.0000 0.97052  0.90275  0.79652  Biso   1.000  C
  O22      1.0000 0.97266  0.92094  0.64810  Biso   1.000  O
  H40      1.0000 0.76940  0.97292  0.64328  Biso   1.000  H
  H41      1.0000 0.85793  0.84915  0.84220  Biso   1.000  H
  C29      1.0000 0.96648  0.90466  0.96021  Biso   1.000  C
  C30      1.0000 0.70106  0.17328  0.69330  Biso   1.000  C
  H42      1.0000 0.59856  0.05799  0.60152  Biso   1.000  H
  O23      1.0000 0.67484  0.11113  0.52872  Biso   1.000  O
  H43      1.0000 0.44405  0.13988  0.49438  Biso   1.000  H
  H44      1.0000 0.59464  0.24740  0.89498  Biso   1.000  H
  H45      1.0000 0.49981  0.25364  0.84028  Biso   1.000  H
  O24      1.0000 0.49786  0.12270  0.83078  Biso   1.000  O
  O25      1.0000 0.98483  0.81387  0.77037  Biso   1.000  O
  H46      1.0000 0.03107  0.95232  0.82253  Biso   1.000  H
  H47      1.0000 0.93963  0.90838  0.59580  Biso   1.000  H
  H48      1.0000 0.92302  0.89763  0.99798  Biso   1.000  H
  H49      1.0000 0.98998  0.85155  0.95188  Biso   1.000  H
  O26      1.0000 0.04293  0.98782  0.00700  Biso   1.000  O
  H50      1.0000 0.74721  0.14022  0.70280  Biso   1.000  H
  O27      1.0000 0.74731  0.26347  0.69103  Biso   1.000  O
  H51      1.0000 0.71895  0.15864  0.54007  Biso   1.000  H
  H52      1.0000 0.52192  0.08813  0.80147  Biso   1.000  H
  C31      1.0000 0.07727  0.80886  0.79197  Biso   1.000  C
  H53      1.0000 0.09239  0.97536  0.01120  Biso   1.000  H
  C32      1.0000 0.84755  0.29343  0.71271  Biso   1.000  C
  C33      1.0000 0.08932  0.74652  0.70548  Biso   1.000  C
  O28      1.0000 0.09297  0.77062  0.86574  Biso   1.000  O
  H54      1.0000 0.12226  0.87142  0.80918  Biso   1.000  H
  C34      1.0000 0.87630  0.32743  0.63578  Biso   1.000  C
  H55      1.0000 0.87083  0.24118  0.71752  Biso   1.000  H
  C35      1.0000 0.88645  0.37214  0.80436  Biso   1.000  C
  C36      1.0000 0.02172  0.64814  0.67927  Biso   1.000  C
  H56      1.0000 0.15353  0.74297  0.71959  Biso   1.000  H
  O29      1.0000 0.07863  0.78653  0.63289  Biso   1.000  O
  C37      1.0000 0.03175  0.67756  0.84688  Biso   1.000  C
  C38      1.0000 0.98243  0.37015  0.66172  Biso   1.000  C
  H57      1.0000 0.84687  0.37507  0.62691  Biso   1.000  H
  O30      1.0000 0.84390  0.25008  0.55280  Biso   1.000  O
  H58      1.0000 0.85524  0.41976  0.80147  Biso   1.000  H
  C39      1.0000 0.87083  0.33846  0.88562  Biso   1.000  C
  O31      1.0000 0.98660  0.41485  0.82253  Biso   1.000  O
  C40      1.0000 0.04214  0.61183  0.76060  Biso   1.000  C
  H59      1.0000 0.95674  0.64936  0.66558  Biso   1.000  H
  O32      1.0000 0.03583  0.58746  0.60282  Biso   1.000  O
  H60      1.0000 0.02922  0.79913  0.62642  Biso   1.000  H
  H61      1.0000 0.96655  0.67824  0.83670  Biso   1.000  H
  C41      1.0000 0.05835  0.64873  0.93131  Biso   1.000  C
  C42      1.0000 0.01513  0.44925  0.75296  Biso   1.000  C
  H62      1.0000 0.01063  0.32175  0.67032  Biso   1.000  H
  O33      1.0000 0.01315  0.40208  0.59147  Biso   1.000  O
  H63      1.0000 0.85797  0.26799  0.51062  Biso   1.000  H
  H64      1.0000 0.90447  0.38896  0.94232  Biso   1.000  H
  H65      1.0000 0.80446  0.32251  0.88259  Biso   1.000  H
  O34      1.0000 0.90124  0.25932  0.88762  Biso   1.000  O
  O35      1.0000 0.97636  0.52039  0.73975  Biso   1.000  O
  H66      1.0000 0.10622  0.60792  0.77188  Biso   1.000  H
  H67      1.0000 0.03850  0.61234  0.56236  Biso   1.000  H
  H68      1.0000 0.05378  0.69334  0.98491  Biso   1.000  H
  H69      1.0000 0.01604  0.58782  0.92367  Biso   1.000  H
  O36      1.0000 0.15274  0.64561  0.94342  Biso   1.000  O
  H70      1.0000 0.08386  0.47446  0.77051  Biso   1.000  H
  H71      1.0000 0.00860  0.45443  0.59677  Biso   1.000  H
  H72      1.0000 0.95807  0.27355  0.89402  Biso   1.000  H
  H73      1.0000 0.16154  0.61190  0.97486  Biso   1.000  H
  O37      1.0000 0.25260  0.53850  0.35092  Biso   1.000  O
  C43      1.0000 0.29449  0.57037  0.28590  Biso   1.000  C
  H74      1.0000 0.20295  0.49669  0.32367  Biso   1.000  H
  C44      1.0000 0.24320  0.50329  0.18929  Biso   1.000  C
  C45      1.0000 0.28451  0.66639  0.28817  Biso   1.000  C
  H75      1.0000 0.36101  0.57425  0.30021  Biso   1.000  H
  O38      1.0000 0.25662  0.41444  0.18495  Biso   1.000  O
  H76      1.0000 0.17611  0.49710  0.17567  Biso   1.000  H
  C46      1.0000 0.28669  0.54090  0.11938  Biso   1.000  C
  C47      1.0000 0.32761  0.69998  0.21709  Biso   1.000  C
  H77      1.0000 0.21748  0.66087  0.27268  Biso   1.000  H
  O39      1.0000 0.32911  0.73246  0.37700  Biso   1.000  O
  C48      1.0000 0.17589  0.33387  0.15048  Biso   1.000  C
  H78      1.0000 0.35230  0.54159  0.13053  Biso   1.000  H
  C49      1.0000 0.23371  0.48287  0.02057  Biso   1.000  C
  O40      1.0000 0.28261  0.63464  0.12826  Biso   1.000  O
  H79      1.0000 0.31931  0.76059  0.21771  Biso   1.000  H
  O41      1.0000 0.42490  0.71043  0.24248  Biso   1.000  O
  H80      1.0000 0.33140  0.78494  0.37459  Biso   1.000  H
  C50      1.0000 0.16979  0.28596  0.22411  Biso   1.000  C
  H81      1.0000 0.11974  0.35310  0.13651  Biso   1.000  H
  O42      1.0000 0.18048  0.27119  0.06943  Biso   1.000  O
  H82      1.0000 0.23598  0.41940  0.00991  Biso   1.000  H
  O43      1.0000 0.13937  0.48249  0.00392  Biso   1.000  O
  H83      1.0000 0.26302  0.50882  0.97888  Biso   1.000  H
  C51      1.0000 0.48922  0.80036  0.25817  Biso   1.000  C
  C52      1.0000 0.25583  0.25429  0.24571  Biso   1.000  C
  H84      1.0000 0.11384  0.23089  0.20023  Biso   1.000  H
  O44      1.0000 0.16092  0.34768  0.30489  Biso   1.000  O
  C53      1.0000 0.25941  0.23487  0.08119  Biso   1.000  C
  H85      1.0000 0.10795  0.44091  0.95610  Biso   1.000  H
  C54      1.0000 0.55871  0.82899  0.35333  Biso   1.000  C
  H86      1.0000 0.45518  0.84597  0.25583  Biso   1.000  H
  C55      1.0000 0.54193  0.79259  0.18337  Biso   1.000  C
  H87      1.0000 0.31262  0.30858  0.26821  Biso   1.000  H
  C56      1.0000 0.25899  0.18747  0.15640  Biso   1.000  C
  O45      1.0000 0.25051  0.20822  0.31362  Biso   1.000  O
  H88      1.0000 0.21312  0.37527  0.34101  Biso   1.000  H
  H89      1.0000 0.31831  0.28596  0.09819  Biso   1.000  H
  C57      1.0000 0.24893  0.16607  0.98940  Biso   1.000  C
  C58      1.0000 0.63442  0.91739  0.36523  Biso   1.000  C
  H90      1.0000 0.58711  0.77946  0.35670  Biso   1.000  H
  O46      1.0000 0.51222  0.84367  0.42420  Biso   1.000  O
  H91      1.0000 0.56860  0.74116  0.18138  Biso   1.000  H
  C59      1.0000 0.47741  0.77502  0.08897  Biso   1.000  C
  O47      1.0000 0.61728  0.87878  0.20229  Biso   1.000  O
  H92      1.0000 0.20481  0.13082  0.13589  Biso   1.000  H
  O48      1.0000 0.34423  0.16454  0.17608  Biso   1.000  O
  H93      1.0000 0.24300  0.15247  0.29030  Biso   1.000  H
  H94      1.0000 0.29363  0.13191  0.99690  Biso   1.000  H
  H95      1.0000 0.18631  0.12143  0.96787  Biso   1.000  H
  O49      1.0000 0.26437  0.21154  0.92273  Biso   1.000  O
  C60      1.0000 0.68319  0.90365  0.28940  Biso   1.000  C
  H96      1.0000 0.60589  0.96698  0.36310  Biso   1.000  H
  O50      1.0000 0.70321  0.94505  0.45275  Biso   1.000  O
  H97      1.0000 0.49324  0.88856  0.42502  Biso   1.000  H
  H98      1.0000 0.51450  0.77591  0.04500  Biso   1.000  H
  H99      1.0000 0.43191  0.71328  0.06977  Biso   1.000  H
  O51      1.0000 0.42798  0.84260  0.08711  Biso   1.000  O
  C61      1.0000 0.33841  0.06911  0.15330  Biso   1.000  C
  H100     1.0000 0.27015  0.17486  0.87780  Biso   1.000  H
  H101     1.0000 0.73250  0.96182  0.29883  Biso   1.000  H
  O52      1.0000 0.72428  0.83215  0.29353  Biso   1.000  O
  H102     1.0000 0.71275  0.00039  0.47959  Biso   1.000  H
  H103     1.0000 0.37138  0.81551  0.06571  Biso   1.000  H
  H104     1.0000 0.27229  0.03058  0.13411  Biso   1.000  H
  C62      1.0000 0.38962  0.05265  0.23869  Biso   1.000  C
  O53      1.0000 0.38077  0.04559  0.08009  Biso   1.000  O
  C63      1.0000 0.82468  0.85429  0.30206  Biso   1.000  C
  C64      1.0000 0.49292  0.11055  0.26711  Biso   1.000  C
  O54      1.0000 0.34811  0.07509  0.31060  Biso   1.000  O
  H105     1.0000 0.38533  0.98646  0.22383  Biso   1.000  H
  C65      1.0000 0.47838  0.09852  0.10060  Biso   1.000  C
  C66      1.0000 0.86791  0.83317  0.38718  Biso   1.000  C
  H106     1.0000 0.85163  0.92071  0.30950  Biso   1.000  H
  C67      1.0000 0.83813  0.79497  0.21509  Biso   1.000  C
  H107     1.0000 0.49844  0.17711  0.28541  Biso   1.000  H
  C68      1.0000 0.53552  0.08751  0.18681  Biso   1.000  C
  O55      1.0000 0.54650  0.09045  0.34122  Biso   1.000  O
  H108     1.0000 0.30990  0.10169  0.29642  Biso   1.000  H
  H109     1.0000 0.48391  0.16462  0.11119  Biso   1.000  H
  C69      1.0000 0.51011  0.06347  0.01610  Biso   1.000  C
  C70      1.0000 0.96970  0.84106  0.39007  Biso   1.000  C
  H110     1.0000 0.83380  0.76985  0.38470  Biso   1.000  H
  O56      1.0000 0.86699  0.89945  0.46892  Biso   1.000  O
  H111     1.0000 0.79688  0.73049  0.19706  Biso   1.000  H
  C71      1.0000 0.81843  0.83857  0.13541  Biso   1.000  C
  O57      1.0000 0.93341  0.79746  0.22417  Biso   1.000  O
  H112     1.0000 0.53828  0.02345  0.17408  Biso   1.000  H
  O58      1.0000 0.62831  0.15143  0.21268  Biso   1.000  O
  H113     1.0000 0.52612  0.10275  0.38622  Biso   1.000  H
  H114     1.0000 0.57372  0.10144  0.02353  Biso   1.000  H
  O59      1.0000 0.50702  0.96882  0.00392  Biso   1.000  O
  H115     1.0000 0.46937  0.06765  0.96243  Biso   1.000  H
  C72      1.0000 0.97492  0.77540  0.30110  Biso   1.000  C
  H116     1.0000 0.00310  0.90549  0.39523  Biso   1.000  H
  O60      1.0000 0.01240  0.82008  0.46768  Biso   1.000  O
  H117     1.0000 0.82512  0.92240  0.45681  Biso   1.000  H
  H118     1.0000 0.82629  0.79983  0.08002  Biso   1.000  H
  H119     1.0000 0.75370  0.83888  0.12282  Biso   1.000  H
  O61      1.0000 0.87823  0.93007  0.15709  Biso   1.000  O
  C73      1.0000 0.70242  0.11407  0.19989  Biso   1.000  C
  H120     1.0000 0.50915  0.94454  0.95149  Biso   1.000  H
  O62      1.0000 0.92862  0.68148  0.29622  Biso   1.000  O
  H121     1.0000 0.04100  0.78249  0.30337  Biso   1.000  H
  H122     1.0000 0.06324  0.86019  0.49479  Biso   1.000  H
  H123     1.0000 0.88698  0.95779  0.21179  Biso   1.000  H
  H124     1.0000 0.67924  0.04587  0.18351  Biso   1.000  H
  C74      1.0000 0.77843  0.15366  0.29112  Biso   1.000  C
  O63      1.0000 0.73908  0.13960  0.12908  Biso   1.000  O
  C75      1.0000 0.98000  0.61686  0.28548  Biso   1.000  C
  H125     1.0000 0.82920  0.12696  0.28328  Biso   1.000  H
  C76      1.0000 0.81891  0.25894  0.31486  Biso   1.000  C
  O64      1.0000 0.74434  0.12797  0.36289  Biso   1.000  O
  C77      1.0000 0.77278  0.23828  0.14642  Biso   1.000  C
  C78      1.0000 0.93444  0.54050  0.19163  Biso   1.000  C
  C79      1.0000 0.97922  0.57420  0.36310  Biso   1.000  C
  H126     1.0000 0.04490  0.64961  0.28879  Biso   1.000  H
  H127     1.0000 0.76953  0.28720  0.32512  Biso   1.000  H
  C80      1.0000 0.85291  0.28322  0.23512  Biso   1.000  C
  O65      1.0000 0.89315  0.29287  0.39771  Biso   1.000  O
  H128     1.0000 0.68833  0.12308  0.35333  Biso   1.000  H
  H129     1.0000 0.72129  0.26398  0.15427  Biso   1.000  H
  C81      1.0000 0.80048  0.25437  0.06179  Biso   1.000  C
  O66      1.0000 0.97593  0.46732  0.18358  Biso   1.000  O
  H130     1.0000 0.86701  0.51460  0.18461  Biso   1.000  H
  C82      1.0000 0.94789  0.57771  0.11209  Biso   1.000  C
  C83      1.0000 0.02613  0.49927  0.34851  Biso   1.000  C
  H131     1.0000 0.91403  0.54635  0.36268  Biso   1.000  H
  O67      1.0000 0.02743  0.64355  0.44973  Biso   1.000  O
  H132     1.0000 0.90568  0.25948  0.22762  Biso   1.000  H
  O68      1.0000 0.88300  0.38182  0.25555  Biso   1.000  O
  H133     1.0000 0.93100  0.34097  0.39840  Biso   1.000  H
  H134     1.0000 0.74838  0.21923  0.00750  Biso   1.000  H
  H135     1.0000 0.81392  0.32012  0.06709  Biso   1.000  H
  O69      1.0000 0.87981  0.22667  0.05181  Biso   1.000  O
  C84      1.0000 0.97578  0.42508  0.25521  Biso   1.000  C
  H136     1.0000 0.91430  0.52883  0.05422  Biso   1.000  H
  H137     1.0000 0.92231  0.62907  0.11470  Biso   1.000  H
  O70      1.0000 0.04607  0.60888  0.11670  Biso   1.000  O
  H138     1.0000 0.09140  0.52756  0.34947  Biso   1.000  H
  O71      1.0000 0.02550  0.45654  0.41966  Biso   1.000  O
  H139     1.0000 0.00925  0.68938  0.45310  Biso   1.000  H
  H140     1.0000 0.88526  0.22253  0.99972  Biso   1.000  H
  H141     1.0000 0.00861  0.37819  0.24537  Biso   1.000  H
  H142     1.0000 0.05381  0.63899  0.08099  Biso   1.000  H
  H143     1.0000 0.07970  0.46718  0.44938  Biso   1.000  H
