data_image0
_cell_length_a       12.281
_cell_length_b       16.984
_cell_length_c       22.124
_cell_angle_alpha    80.84
_cell_angle_beta     75.33
_cell_angle_gamma    73.13

_symmetry_space_group_name_H-M    "P 1"
_symmetry_int_tables_number       1

loop_
  _symmetry_equiv_pos_as_xyz
  'x, y, z'

loop_
  _atom_site_label
  _atom_site_occupancy
  _atom_site_fract_x
  _atom_site_fract_y
  _atom_site_fract_z
  _atom_site_thermal_displace_type
  _atom_site_B_iso_or_equiv
  _atom_site_type_symbol
  O1       1.0000 0.62473  0.54128  0.45456  Biso   1.000  O
  C1       1.0000 0.57909  0.61654  0.47661  Biso   1.000  C
  C2       1.0000 0.66931  0.47338  0.49669  Biso   1.000  C
  C3       1.0000 0.53217  0.68104  0.43508  Biso   1.000  C
  C4       1.0000 0.57424  0.63324  0.53752  Biso   1.000  C
  H1       1.0000 0.60708  0.46725  0.53339  Biso   1.000  H
  H2       1.0000 0.73356  0.48398  0.51021  Biso   1.000  H
  H3       1.0000 0.69780  0.42257  0.47539  Biso   1.000  H
  C5       1.0000 0.53927  0.66479  0.36850  Biso   1.000  C
  C6       1.0000 0.48489  0.75918  0.45428  Biso   1.000  C
  H4       1.0000 0.60434  0.58916  0.56600  Biso   1.000  H
  C7       1.0000 0.52717  0.71163  0.55709  Biso   1.000  C
  C8       1.0000 0.64947  0.68109  0.32411  Biso   1.000  C
  H5       1.0000 0.46997  0.70097  0.35381  Biso   1.000  H
  H6       1.0000 0.53910  0.60666  0.36789  Biso   1.000  H
  C9       1.0000 0.48298  0.77554  0.51439  Biso   1.000  C
  H7       1.0000 0.45282  0.80272  0.42612  Biso   1.000  H
  C10      1.0000 0.52739  0.72912  0.62208  Biso   1.000  C
  C11      1.0000 0.74990  0.61767  0.31289  Biso   1.000  C
  C12      1.0000 0.65104  0.76098  0.29661  Biso   1.000  C
  O2       1.0000 0.43767  0.85284  0.53588  Biso   1.000  O
  H8       1.0000 0.45458  0.77093  0.63798  Biso   1.000  H
  H9       1.0000 0.52897  0.67794  0.65079  Biso   1.000  H
  C13      1.0000 0.63058  0.76004  0.62231  Biso   1.000  C
  C14      1.0000 0.85206  0.63136  0.27432  Biso   1.000  C
  H10      1.0000 0.74899  0.56354  0.33199  Biso   1.000  H
  O3       1.0000 0.54957  0.82118  0.31008  Biso   1.000  O
  C15      1.0000 0.75457  0.77376  0.25691  Biso   1.000  C
  C16      1.0000 0.40013  0.92006  0.49120  Biso   1.000  C
  C17      1.0000 0.74230  0.69735  0.62480  Biso   1.000  C
  C18      1.0000 0.62569  0.83964  0.61940  Biso   1.000  C
  O4       1.0000 0.95605  0.57108  0.26254  Biso   1.000  O
  C19      1.0000 0.85363  0.71060  0.24509  Biso   1.000  C
  C20      1.0000 0.55828  0.90384  0.29412  Biso   1.000  C
  H11      1.0000 0.75584  0.82768  0.23758  Biso   1.000  H
  H12      1.0000 0.37560  0.97215  0.51058  Biso   1.000  H
  H13      1.0000 0.33462  0.91182  0.47750  Biso   1.000  H
  H14      1.0000 0.46480  0.92185  0.45479  Biso   1.000  H
  O5       1.0000 0.75117  0.62346  0.62930  Biso   1.000  O
  C21      1.0000 0.84549  0.72781  0.62222  Biso   1.000  C
  C22      1.0000 0.72832  0.86933  0.61659  Biso   1.000  C
  H15      1.0000 0.55288  0.87904  0.61921  Biso   1.000  H
  C23      1.0000 0.96589  0.49476  0.30008  Biso   1.000  C
  C24      1.0000 0.96554  0.72736  0.20351  Biso   1.000  C
  H16      1.0000 0.48788  0.94158  0.31618  Biso   1.000  H
  H17      1.0000 0.56617  0.91756  0.24870  Biso   1.000  H
  H18      1.0000 0.62677  0.90968  0.30628  Biso   1.000  H
  H19      1.0000 0.91810  0.68833  0.62311  Biso   1.000  H
  C25      1.0000 0.84119  0.80731  0.61865  Biso   1.000  C
  O6       1.0000 0.72038  0.94355  0.61189  Biso   1.000  O
  H20      1.0000 0.95022  0.50445  0.34428  Biso   1.000  H
  H21      1.0000 0.90951  0.46770  0.29398  Biso   1.000  H
  H22      1.0000 0.04498  0.45916  0.28779  Biso   1.000  H
  H23      1.0000 0.94608  0.77058  0.16940  Biso   1.000  H
  C26      1.0000 0.03379  0.75527  0.24049  Biso   1.000  C
  H24      1.0000 0.01460  0.67650  0.18408  Biso   1.000  H
  C27      1.0000 0.94461  0.83853  0.61438  Biso   1.000  C
  C28      1.0000 0.10670  0.69766  0.27451  Biso   1.000  C
  C29      1.0000 0.01982  0.83986  0.24312  Biso   1.000  C
  H25      1.0000 0.99398  0.80187  0.64211  Biso   1.000  H
  H26      1.0000 0.91849  0.89453  0.62897  Biso   1.000  H
  C30      1.0000 0.01548  0.84173  0.54780  Biso   1.000  C
  C31      1.0000 0.16710  0.72268  0.31055  Biso   1.000  C
  H27      1.0000 0.11563  0.64047  0.27329  Biso   1.000  H
  O7       1.0000 0.94914  0.89316  0.20764  Biso   1.000  O
  C32      1.0000 0.07974  0.86379  0.27901  Biso   1.000  C
  C33      1.0000 0.98375  0.90174  0.50369  Biso   1.000  C
  C34      1.0000 0.11814  0.77237  0.52978  Biso   1.000  C
  O8       1.0000 0.24303  0.66859  0.34339  Biso   1.000  O
  C35      1.0000 0.15433  0.80628  0.31317  Biso   1.000  C
  C36      1.0000 0.93789  0.97866  0.20778  Biso   1.000  C
  H28      1.0000 0.07015  0.92107  0.28051  Biso   1.000  H
  C37      1.0000 0.05085  0.90277  0.43870  Biso   1.000  C
  H29      1.0000 0.91558  0.94523  0.51490  Biso   1.000  H
  C38      1.0000 0.18309  0.77248  0.46479  Biso   1.000  C
  O9       1.0000 0.14785  0.71505  0.56844  Biso   1.000  O
  C39      1.0000 0.26296  0.58269  0.33940  Biso   1.000  C
  C40      1.0000 0.21754  0.83429  0.35292  Biso   1.000  C
  H30      1.0000 0.90193  0.99539  0.25029  Biso   1.000  H
  H31      1.0000 0.88871  0.01049  0.17888  Biso   1.000  H
  H32      1.0000 0.01517  0.98929  0.19431  Biso   1.000  H
  C41      1.0000 0.15428  0.83296  0.42082  Biso   1.000  C
  O10      1.0000 0.02314  0.96128  0.40083  Biso   1.000  O
  H33      1.0000 0.24873  0.72749  0.45329  Biso   1.000  H
  H34      1.0000 0.32757  0.55166  0.35930  Biso   1.000  H
  H35      1.0000 0.28278  0.57178  0.29520  Biso   1.000  H
  H36      1.0000 0.19235  0.56529  0.36099  Biso   1.000  H
  H37      1.0000 0.29749  0.79744  0.34931  Biso   1.000  H
  H38      1.0000 0.22398  0.89109  0.33720  Biso   1.000  H
  O11      1.0000 0.37524  0.45864  0.54545  Biso   1.000  O
  C42      1.0000 0.42088  0.38337  0.52339  Biso   1.000  C
  C43      1.0000 0.33066  0.52653  0.50331  Biso   1.000  C
  C44      1.0000 0.42565  0.36668  0.46249  Biso   1.000  C
  C45      1.0000 0.46782  0.31888  0.56488  Biso   1.000  C
  H39      1.0000 0.39290  0.53267  0.46662  Biso   1.000  H
  H40      1.0000 0.26641  0.51594  0.48980  Biso   1.000  H
  H41      1.0000 0.30218  0.57734  0.52461  Biso   1.000  H
  C46      1.0000 0.47280  0.28828  0.44292  Biso   1.000  C
  H42      1.0000 0.39555  0.41076  0.43400  Biso   1.000  H
  C47      1.0000 0.51510  0.24075  0.54568  Biso   1.000  C
  C48      1.0000 0.46071  0.33513  0.63151  Biso   1.000  C
  C49      1.0000 0.47260  0.27080  0.37788  Biso   1.000  C
  C50      1.0000 0.51699  0.22438  0.48562  Biso   1.000  C
  H43      1.0000 0.54718  0.19713  0.57389  Biso   1.000  H
  C51      1.0000 0.35051  0.31882  0.67590  Biso   1.000  C
  H44      1.0000 0.53000  0.29894  0.64620  Biso   1.000  H
  H45      1.0000 0.46088  0.39326  0.63212  Biso   1.000  H
  C52      1.0000 0.36939  0.23987  0.37769  Biso   1.000  C
  H46      1.0000 0.54539  0.22899  0.36202  Biso   1.000  H
  H47      1.0000 0.47101  0.32198  0.34921  Biso   1.000  H
  O12      1.0000 0.56230  0.14708  0.46413  Biso   1.000  O
  C53      1.0000 0.25007  0.38224  0.68711  Biso   1.000  C
  C54      1.0000 0.34893  0.23893  0.70340  Biso   1.000  C
  C55      1.0000 0.25767  0.30257  0.37521  Biso   1.000  C
  C56      1.0000 0.37428  0.16027  0.38060  Biso   1.000  C
  C57      1.0000 0.59976  0.07986  0.50880  Biso   1.000  C
  C58      1.0000 0.14791  0.36856  0.72569  Biso   1.000  C
  H48      1.0000 0.25101  0.43632  0.66802  Biso   1.000  H
  O13      1.0000 0.45042  0.17875  0.68988  Biso   1.000  O
  C59      1.0000 0.24540  0.22616  0.74309  Biso   1.000  C
  C60      1.0000 0.15450  0.27204  0.37779  Biso   1.000  C
  O14      1.0000 0.24882  0.37646  0.37066  Biso   1.000  O
  C61      1.0000 0.27165  0.13058  0.38342  Biso   1.000  C
  H49      1.0000 0.44709  0.12087  0.38079  Biso   1.000  H
  H50      1.0000 0.62439  0.02777  0.48937  Biso   1.000  H
  H51      1.0000 0.66538  0.08803  0.52250  Biso   1.000  H
  H52      1.0000 0.53517  0.07806  0.54521  Biso   1.000  H
  O15      1.0000 0.04392  0.42884  0.73746  Biso   1.000  O
  C62      1.0000 0.14634  0.28932  0.75492  Biso   1.000  C
  C63      1.0000 0.44170  0.09607  0.70588  Biso   1.000  C
  H53      1.0000 0.24415  0.17225  0.76238  Biso   1.000  H
  H54      1.0000 0.08188  0.31159  0.37690  Biso   1.000  H
  C64      1.0000 0.15881  0.19254  0.38135  Biso   1.000  C
  O16      1.0000 0.27961  0.05637  0.38806  Biso   1.000  O
  C65      1.0000 0.03410  0.50516  0.69988  Biso   1.000  C
  C66      1.0000 0.03444  0.27256  0.79649  Biso   1.000  C
  H55      1.0000 0.51211  0.05834  0.68378  Biso   1.000  H
  H56      1.0000 0.43381  0.08235  0.75131  Biso   1.000  H
  H57      1.0000 0.37322  0.09024  0.69368  Biso   1.000  H
  C67      1.0000 0.05538  0.16139  0.38558  Biso   1.000  C
  H58      1.0000 0.04977  0.49547  0.65567  Biso   1.000  H
  H59      1.0000 0.09048  0.53222  0.70598  Biso   1.000  H
  H60      1.0000 0.95499  0.54075  0.71222  Biso   1.000  H
  C68      1.0000 0.96620  0.24465  0.75947  Biso   1.000  C
  H61      1.0000 0.05389  0.22933  0.83061  Biso   1.000  H
  H62      1.0000 0.98540  0.32342  0.81587  Biso   1.000  H
  H63      1.0000 0.00599  0.19805  0.35789  Biso   1.000  H
  H64      1.0000 0.08150  0.10539  0.37098  Biso   1.000  H
  C69      1.0000 0.98450  0.15819  0.45221  Biso   1.000  C
  C70      1.0000 0.89328  0.30226  0.72550  Biso   1.000  C
  C71      1.0000 0.98008  0.16006  0.75689  Biso   1.000  C
  C72      1.0000 0.01623  0.09818  0.49632  Biso   1.000  C
  C73      1.0000 0.88185  0.22755  0.47018  Biso   1.000  C
  C74      1.0000 0.83288  0.27724  0.68946  Biso   1.000  C
  H65      1.0000 0.88426  0.35945  0.72672  Biso   1.000  H
  C75      1.0000 0.92023  0.13613  0.72099  Biso   1.000  C
  O17      1.0000 0.05083  0.10676  0.79237  Biso   1.000  O
  H66      1.0000 0.08439  0.05469  0.48510  Biso   1.000  H
  C76      1.0000 0.94913  0.09714  0.56131  Biso   1.000  C
  O18      1.0000 0.85214  0.28487  0.43152  Biso   1.000  O
  C77      1.0000 0.81689  0.22744  0.53522  Biso   1.000  C
  C78      1.0000 0.84564  0.19364  0.68683  Biso   1.000  C
  O19      1.0000 0.75696  0.33133  0.65657  Biso   1.000  O
  H67      1.0000 0.92982  0.07885  0.71949  Biso   1.000  H
  C79      1.0000 0.06210  0.02126  0.79218  Biso   1.000  C
  O20      1.0000 0.97683  0.03863  0.59918  Biso   1.000  O
  C80      1.0000 0.84569  0.16695  0.57919  Biso   1.000  C
  H68      1.0000 0.75125  0.27243  0.54672  Biso   1.000  H
  C81      1.0000 0.78243  0.16563  0.64709  Biso   1.000  C
  C82      1.0000 0.73702  0.41722  0.66060  Biso   1.000  C
  H69      1.0000 0.09804  0.00453  0.74971  Biso   1.000  H
  H70      1.0000 0.98480  0.01063  0.80569  Biso   1.000  H
  H71      1.0000 0.11128  0.98943  0.82108  Biso   1.000  H
  H72      1.0000 0.70249  0.20247  0.65070  Biso   1.000  H
  H73      1.0000 0.77599  0.10883  0.66281  Biso   1.000  H
  H74      1.0000 0.67240  0.44826  0.64071  Biso   1.000  H
  H75      1.0000 0.71719  0.42814  0.70480  Biso   1.000  H
  H76      1.0000 0.80763  0.43462  0.63902  Biso   1.000  H
  C83      1.0000 0.54057  0.58812  0.78950  Biso   1.000  C
  O21      1.0000 0.48707  0.67354  0.78129  Biso   1.000  O
  H77      1.0000 0.60730  0.57285  0.75431  Biso   1.000  H
  H78      1.0000 0.48417  0.55682  0.79091  Biso   1.000  H
  H79      1.0000 0.56762  0.57532  0.82892  Biso   1.000  H
  C84      1.0000 0.55376  0.72716  0.78054  Biso   1.000  C
  C85      1.0000 0.67270  0.70116  0.77829  Biso   1.000  C
  C86      1.0000 0.49424  0.81076  0.78265  Biso   1.000  C
  C87      1.0000 0.73673  0.75711  0.77810  Biso   1.000  C
  H80      1.0000 0.71145  0.64406  0.77679  Biso   1.000  H
  C88      1.0000 0.55929  0.86653  0.78092  Biso   1.000  C
  C89      1.0000 0.36496  0.83904  0.78734  Biso   1.000  C
  C90      1.0000 0.86408  0.72765  0.77956  Biso   1.000  C
  C91      1.0000 0.67775  0.84016  0.77970  Biso   1.000  C
  H81      1.0000 0.52151  0.92391  0.78059  Biso   1.000  H
  H82      1.0000 0.34248  0.80435  0.76308  Biso   1.000  H
  H83      1.0000 0.34409  0.89681  0.76872  Biso   1.000  H
  C92      1.0000 0.29750  0.83353  0.85529  Biso   1.000  C
  C93      1.0000 0.88082  0.70791  0.84661  Biso   1.000  C
  H84      1.0000 0.90357  0.77082  0.75802  Biso   1.000  H
  H85      1.0000 0.90041  0.67752  0.75670  Biso   1.000  H
  O22      1.0000 0.74437  0.89232  0.77984  Biso   1.000  O
  C94      1.0000 0.26733  0.76080  0.88260  Biso   1.000  C
  C95      1.0000 0.26989  0.89874  0.89217  Biso   1.000  C
  C96      1.0000 0.87728  0.62930  0.87819  Biso   1.000  C
  C97      1.0000 0.89337  0.76705  0.87828  Biso   1.000  C
  C98      1.0000 0.69121  0.97631  0.78481  Biso   1.000  C
  H86      1.0000 0.28515  0.71593  0.85801  Biso   1.000  H
  C99      1.0000 0.21099  0.75331  0.94557  Biso   1.000  C
  O23      1.0000 0.30301  0.96856  0.86256  Biso   1.000  O
  C100     1.0000 0.21177  0.89144  0.95458  Biso   1.000  C
  O24      1.0000 0.86101  0.57461  0.84436  Biso   1.000  O
  C101     1.0000 0.88917  0.61340  0.93947  Biso   1.000  C
  H87      1.0000 0.89660  0.81973  0.85698  Biso   1.000  H
  C102     1.0000 0.90166  0.75132  0.94069  Biso   1.000  C
  H88      1.0000 0.62621  0.98314  0.82169  Biso   1.000  H
  H89      1.0000 0.66165  0.00086  0.74699  Biso   1.000  H
  H90      1.0000 0.74822  0.00393  0.78941  Biso   1.000  H
  O25      1.0000 0.18342  0.68183  0.97570  Biso   1.000  O
  C103     1.0000 0.18260  0.81929  0.98171  Biso   1.000  C
  C104     1.0000 0.26268  0.03963  0.89630  Biso   1.000  C
  H91      1.0000 0.19189  0.93690  0.97889  Biso   1.000  H
  C105     1.0000 0.84835  0.49805  0.87430  Biso   1.000  C
  C106     1.0000 0.90130  0.67341  0.97110  Biso   1.000  C
  H92      1.0000 0.88919  0.56013  0.96059  Biso   1.000  H
  O26      1.0000 0.91210  0.80903  0.97448  Biso   1.000  O
  C107     1.0000 0.20408  0.61679  0.93891  Biso   1.000  C
  C108     1.0000 0.11869  0.81278  0.05022  Biso   1.000  C
  H93      1.0000 0.28839  0.08573  0.86988  Biso   1.000  H
  H94      1.0000 0.29451  0.02799  0.93422  Biso   1.000  H
  H95      1.0000 0.17728  0.05435  0.90832  Biso   1.000  H
  H96      1.0000 0.81463  0.47273  0.84928  Biso   1.000  H
  H97      1.0000 0.79676  0.50565  0.91592  Biso   1.000  H
  H98      1.0000 0.92488  0.46212  0.87880  Biso   1.000  H
  C109     1.0000 0.91526  0.65308  0.03942  Biso   1.000  C
  C110     1.0000 0.91986  0.88705  0.94168  Biso   1.000  C
  H99      1.0000 0.17047  0.63773  0.90189  Biso   1.000  H
  H100     1.0000 0.16794  0.57410  0.96359  Biso   1.000  H
  H101     1.0000 0.28830  0.59313  0.92558  Biso   1.000  H
  H102     1.0000 0.06791  0.86778  0.06138  Biso   1.000  H
  H103     1.0000 0.06846  0.77466  0.05608  Biso   1.000  H
  C111     1.0000 0.20248  0.78179  0.09301  Biso   1.000  C
  H104     1.0000 0.95626  0.59398  0.04580  Biso   1.000  H
  H105     1.0000 0.96442  0.68599  0.04712  Biso   1.000  H
  C112     1.0000 0.80045  0.67074  0.08635  Biso   1.000  C
  H106     1.0000 0.98408  0.87884  0.90451  Biso   1.000  H
  H107     1.0000 0.93448  0.92084  0.96932  Biso   1.000  H
  H108     1.0000 0.84657  0.91521  0.92868  Biso   1.000  H
  C113     1.0000 0.24927  0.70309  0.10770  Biso   1.000  C
  C114     1.0000 0.23617  0.84588  0.11788  Biso   1.000  C
  C115     1.0000 0.75951  0.59888  0.12168  Biso   1.000  C
  C116     1.0000 0.73588  0.74499  0.09761  Biso   1.000  C
  H109     1.0000 0.22958  0.66289  0.09019  Biso   1.000  H
  C117     1.0000 0.33238  0.67459  0.15068  Biso   1.000  C
  O27      1.0000 0.19573  0.91936  0.10512  Biso   1.000  O
  C118     1.0000 0.31946  0.81735  0.15960  Biso   1.000  C
  O28      1.0000 0.81861  0.52908  0.11638  Biso   1.000  O
  C119     1.0000 0.64438  0.61505  0.16419  Biso   1.000  C
  H110     1.0000 0.76324  0.79070  0.07541  Biso   1.000  H
  C120     1.0000 0.62254  0.76186  0.14289  Biso   1.000  C
  O29      1.0000 0.36824  0.60107  0.16584  Biso   1.000  O
  C121     1.0000 0.36575  0.73867  0.17466  Biso   1.000  C
  H111     1.0000 0.34056  0.85759  0.17630  Biso   1.000  H
  C122     1.0000 0.57726  0.69014  0.17405  Biso   1.000  C
  H112     1.0000 0.61667  0.56929  0.18578  Biso   1.000  H
  O30      1.0000 0.56598  0.83244  0.15392  Biso   1.000  O
  C123     1.0000 0.45517  0.70886  0.21530  Biso   1.000  C
  H113     1.0000 0.44616  0.75189  0.24289  Biso   1.000  H
  H114     1.0000 0.44256  0.65839  0.24218  Biso   1.000  H
  C124     1.0000 0.45940  0.41179  0.21050  Biso   1.000  C
  O31      1.0000 0.51292  0.32638  0.21867  Biso   1.000  O
  H115     1.0000 0.39268  0.42707  0.24570  Biso   1.000  H
  H116     1.0000 0.51580  0.44310  0.20910  Biso   1.000  H
  H117     1.0000 0.43235  0.42460  0.17109  Biso   1.000  H
  C125     1.0000 0.44624  0.27276  0.21942  Biso   1.000  C
  C126     1.0000 0.32727  0.29876  0.22172  Biso   1.000  C
  C127     1.0000 0.50567  0.18916  0.21731  Biso   1.000  C
  C128     1.0000 0.26325  0.24281  0.22191  Biso   1.000  C
  H118     1.0000 0.28853  0.35585  0.22322  Biso   1.000  H
  C129     1.0000 0.44068  0.13339  0.21909  Biso   1.000  C
  C130     1.0000 0.63501  0.16087  0.21266  Biso   1.000  C
  C131     1.0000 0.13589  0.27227  0.22045  Biso   1.000  C
  C132     1.0000 0.32224  0.15976  0.22026  Biso   1.000  C
  H119     1.0000 0.47846  0.07600  0.21942  Biso   1.000  H
  H120     1.0000 0.65749  0.19557  0.23692  Biso   1.000  H
  H121     1.0000 0.65588  0.10310  0.23129  Biso   1.000  H
  C133     1.0000 0.70247  0.16639  0.14471  Biso   1.000  C
  C134     1.0000 0.11915  0.29201  0.15340  Biso   1.000  C
  H122     1.0000 0.09641  0.22910  0.24199  Biso   1.000  H
  H123     1.0000 0.09957  0.32240  0.24330  Biso   1.000  H
  O32      1.0000 0.25560  0.10760  0.22017  Biso   1.000  O
  C135     1.0000 0.73265  0.23912  0.11740  Biso   1.000  C
  C136     1.0000 0.73010  0.10118  0.10779  Biso   1.000  C
  C137     1.0000 0.12272  0.37055  0.12182  Biso   1.000  C
  C138     1.0000 0.10661  0.23287  0.12172  Biso   1.000  C
  C139     1.0000 0.30876  0.02360  0.21520  Biso   1.000  C
  H124     1.0000 0.71482  0.28399  0.14199  Biso   1.000  H
  C140     1.0000 0.78901  0.24661  0.05439  Biso   1.000  C
  O33      1.0000 0.69698  0.03137  0.13739  Biso   1.000  O
  C141     1.0000 0.78820  0.10847  0.04542  Biso   1.000  C
  O34      1.0000 0.13897  0.42531  0.15565  Biso   1.000  O
  C142     1.0000 0.11080  0.38652  0.06053  Biso   1.000  C
  H125     1.0000 0.10339  0.18019  0.14298  Biso   1.000  H
  C143     1.0000 0.09831  0.24860  0.05931  Biso   1.000  C
  H126     1.0000 0.37377  0.01678  0.17831  Biso   1.000  H
  H127     1.0000 0.33833  0.99906  0.25302  Biso   1.000  H
  H128     1.0000 0.25176  0.99599  0.21060  Biso   1.000  H
  O35      1.0000 0.81655  0.31808  0.02431  Biso   1.000  O
  C144     1.0000 0.81740  0.18057  0.01830  Biso   1.000  C
  C145     1.0000 0.73729  0.96029  0.10370  Biso   1.000  C
  H129     1.0000 0.80809  0.06301  0.02112  Biso   1.000  H
  C146     1.0000 0.15162  0.50187  0.12571  Biso   1.000  C
  C147     1.0000 0.09867  0.32651  0.02891  Biso   1.000  C
  H130     1.0000 0.11078  0.43979  0.03942  Biso   1.000  H
  O36      1.0000 0.08787  0.19088  0.02553  Biso   1.000  O
  C148     1.0000 0.79592  0.38306  0.06110  Biso   1.000  C
  C149     1.0000 0.88128  0.18713  0.94979  Biso   1.000  C
  H131     1.0000 0.71158  0.91418  0.13012  Biso   1.000  H
  H132     1.0000 0.70546  0.97192  0.06579  Biso   1.000  H
  H133     1.0000 0.82270  0.94557  0.09169  Biso   1.000  H
  H134     1.0000 0.18534  0.52718  0.15072  Biso   1.000  H
  H135     1.0000 0.20322  0.49427  0.08409  Biso   1.000  H
  H136     1.0000 0.07509  0.53780  0.12121  Biso   1.000  H
  C150     1.0000 0.08472  0.34683  0.96058  Biso   1.000  C
  C151     1.0000 0.08013  0.11287  0.05828  Biso   1.000  C
  H137     1.0000 0.82950  0.36218  0.09812  Biso   1.000  H
  H138     1.0000 0.83203  0.42582  0.03641  Biso   1.000  H
  H139     1.0000 0.71167  0.40679  0.07442  Biso   1.000  H
  H140     1.0000 0.93206  0.13213  0.93862  Biso   1.000  H
  H141     1.0000 0.93154  0.22526  0.94388  Biso   1.000  H
  C152     1.0000 0.79749  0.21813  0.90700  Biso   1.000  C
  H142     1.0000 0.04371  0.40594  0.95420  Biso   1.000  H
  H143     1.0000 0.03556  0.31393  0.95289  Biso   1.000  H
  C153     1.0000 0.19955  0.32911  0.91366  Biso   1.000  C
  H144     1.0000 0.01590  0.12107  0.09549  Biso   1.000  H
  H145     1.0000 0.06549  0.07907  0.03069  Biso   1.000  H
  H146     1.0000 0.15342  0.08471  0.07128  Biso   1.000  H
  C154     1.0000 0.75070  0.29683  0.89231  Biso   1.000  C
  C155     1.0000 0.76382  0.15404  0.88208  Biso   1.000  C
  C156     1.0000 0.24048  0.40104  0.87828  Biso   1.000  C
  C157     1.0000 0.26410  0.25493  0.90240  Biso   1.000  C
  H147     1.0000 0.77039  0.33702  0.90981  Biso   1.000  H
  C158     1.0000 0.66762  0.32533  0.84928  Biso   1.000  C
  O37      1.0000 0.80424  0.08055  0.89489  Biso   1.000  O
  C159     1.0000 0.68051  0.18256  0.84041  Biso   1.000  C
  O38      1.0000 0.18139  0.47084  0.88358  Biso   1.000  O
  C160     1.0000 0.35559  0.38487  0.83581  Biso   1.000  C
  H148     1.0000 0.23673  0.20922  0.92459  Biso   1.000  H
  C161     1.0000 0.37737  0.23806  0.85707  Biso   1.000  C
  C162     1.0000 0.63423  0.26124  0.82535  Biso   1.000  C
  O39      1.0000 0.63173  0.39885  0.83417  Biso   1.000  O
  H149     1.0000 0.65941  0.14233  0.82370  Biso   1.000  H
  C163     1.0000 0.42274  0.30971  0.82596  Biso   1.000  C
  H150     1.0000 0.38333  0.43064  0.81418  Biso   1.000  H
  O40      1.0000 0.43402  0.16748  0.84604  Biso   1.000  O
  C164     1.0000 0.54480  0.29105  0.78471  Biso   1.000  C
  H151     1.0000 0.55381  0.24803  0.75712  Biso   1.000  H
  H152     1.0000 0.55741  0.34152  0.75782  Biso   1.000  H
  Ne1      1.0000 0.45156  0.24917  0.03867  Biso   1.000  Ne
  He1      1.0000 0.44718  0.15719  0.03482  Biso   1.000  He
  He2      1.0000 0.47185  0.38358  0.02285  Biso   1.000  He
  Ar1      1.0000 0.45995  0.25478  0.03113  Biso   1.000  Ar
  Ne2      1.0000 0.16585  0.24538  0.57764  Biso   1.000  Ne
  He3      1.0000 0.25003  0.12914  0.57340  Biso   1.000  He
  He4      1.0000 0.02751  0.44830  0.51665  Biso   1.000  He
  Ar2      1.0000 0.16291  0.24538  0.56833  Biso   1.000  Ar
  Ne3      1.0000 0.83412  0.75454  0.42235  Biso   1.000  Ne
  He5      1.0000 0.91877  0.64152  0.44975  Biso   1.000  He
  He6      1.0000 0.74790  0.87861  0.42580  Biso   1.000  He
  Ar3      1.0000 0.83708  0.75453  0.43168  Biso   1.000  Ar
  Ne4      1.0000 0.54841  0.75074  0.96132  Biso   1.000  Ne
  He7      1.0000 0.51548  0.56075  0.99499  Biso   1.000  He
  He8      1.0000 0.55284  0.82915  0.96471  Biso   1.000  He
  Ar4      1.0000 0.54063  0.74363  0.96850  Biso   1.000  Ar
