data_image0
_cell_length_a       11.504
_cell_length_b       15.158
_cell_length_c       28.54
_cell_angle_alpha    90
_cell_angle_beta     90
_cell_angle_gamma    90

_symmetry_space_group_name_H-M    "P 1"
_symmetry_int_tables_number       1

loop_
  _symmetry_equiv_pos_as_xyz
  'x, y, z'

loop_
  _atom_site_label
  _atom_site_occupancy
  _atom_site_fract_x
  _atom_site_fract_y
  _atom_site_fract_z
  _atom_site_thermal_displace_type
  _atom_site_B_iso_or_equiv
  _atom_site_type_symbol
  N1       1.0000 0.35457  0.63491  0.42435  Biso   1.000  N
  C1       1.0000 0.39969  0.57290  0.39043  Biso   1.000  C
  C2       1.0000 0.41855  0.70643  0.43994  Biso   1.000  C
  C3       1.0000 0.25000  0.62271  0.45109  Biso   1.000  C
  N2       1.0000 0.35596  0.58688  0.34376  Biso   1.000  N
  H1       1.0000 0.48374  0.57738  0.38991  Biso   1.000  H
  H2       1.0000 0.37987  0.51352  0.40032  Biso   1.000  H
  N3       1.0000 0.35509  0.74792  0.47383  Biso   1.000  N
  O1       1.0000 0.51460  0.72668  0.42582  Biso   1.000  O
  N4       1.0000 0.14543  0.63491  0.42435  Biso   1.000  N
  C4       1.0000 0.25000  0.70253  0.48511  Biso   1.000  C
  H3       1.0000 0.25000  0.56643  0.46790  Biso   1.000  H
  C5       1.0000 0.25000  0.55007  0.32386  Biso   1.000  C
  C6       1.0000 0.41412  0.64151  0.31296  Biso   1.000  C
  C7       1.0000 0.39899  0.82359  0.49832  Biso   1.000  C
  C8       1.0000 0.10031  0.57290  0.39043  Biso   1.000  C
  C9       1.0000 0.08136  0.70643  0.43994  Biso   1.000  C
  N5       1.0000 0.14491  0.74792  0.47383  Biso   1.000  N
  H4       1.0000 0.25000  0.68287  0.51780  Biso   1.000  H
  C10      1.0000 0.25000  0.45019  0.32589  Biso   1.000  C
  C11      1.0000 0.25000  0.59051  0.27263  Biso   1.000  C
  N6       1.0000 0.14404  0.58688  0.34376  Biso   1.000  N
  N7       1.0000 0.35622  0.64375  0.27253  Biso   1.000  N
  O2       1.0000 0.50652  0.67753  0.32127  Biso   1.000  O
  H5       1.0000 0.48322  0.82333  0.49639  Biso   1.000  H
  H6       1.0000 0.37813  0.81851  0.53111  Biso   1.000  H
  N8       1.0000 0.35648  0.90804  0.48080  Biso   1.000  N
  H7       1.0000 0.01617  0.57738  0.38991  Biso   1.000  H
  H8       1.0000 0.12013  0.51352  0.40032  Biso   1.000  H
  O3       1.0000 0.98540  0.72668  0.42582  Biso   1.000  O
  C12      1.0000 0.10101  0.82359  0.49832  Biso   1.000  C
  H9       1.0000 0.17907  0.42809  0.31261  Biso   1.000  H
  H10      1.0000 0.25582  0.43139  0.35799  Biso   1.000  H
  H11      1.0000 0.31502  0.42783  0.30851  Biso   1.000  H
  H12      1.0000 0.32093  0.42809  0.31261  Biso   1.000  H
  H13      1.0000 0.24418  0.43139  0.35799  Biso   1.000  H
  H14      1.0000 0.18498  0.42783  0.30851  Biso   1.000  H
  C13      1.0000 0.25000  0.52322  0.23252  Biso   1.000  C
  N9       1.0000 0.14378  0.64375  0.27253  Biso   1.000  N
  C14      1.0000 0.08588  0.64151  0.31296  Biso   1.000  C
  C15      1.0000 0.39908  0.69699  0.23371  Biso   1.000  C
  C16      1.0000 0.41716  0.95844  0.45042  Biso   1.000  C
  C17      1.0000 0.25000  0.95079  0.49552  Biso   1.000  C
  H15      1.0000 0.01678  0.82333  0.49639  Biso   1.000  H
  H16      1.0000 0.12187  0.81851  0.53111  Biso   1.000  H
  N10      1.0000 0.14352  0.90804  0.48080  Biso   1.000  N
  H17      1.0000 0.32041  0.48918  0.23350  Biso   1.000  H
  H18      1.0000 0.24531  0.55364  0.20301  Biso   1.000  H
  H19      1.0000 0.18428  0.48463  0.23570  Biso   1.000  H
  H20      1.0000 0.17959  0.48918  0.23350  Biso   1.000  H
  H21      1.0000 0.25469  0.55364  0.20301  Biso   1.000  H
  H22      1.0000 0.31572  0.48463  0.23570  Biso   1.000  H
  C18      1.0000 0.10092  0.69699  0.23371  Biso   1.000  C
  O4       1.0000 0.99339  0.67753  0.32127  Biso   1.000  O
  H23      1.0000 0.48340  0.69831  0.23490  Biso   1.000  H
  H24      1.0000 0.37665  0.66922  0.20448  Biso   1.000  H
  N11      1.0000 0.35605  0.78652  0.23409  Biso   1.000  N
  O5       1.0000 0.51495  0.94181  0.43581  Biso   1.000  O
  N12      1.0000 0.35535  0.03279  0.44135  Biso   1.000  N
  H25      1.0000 0.25000  0.96154  0.52940  Biso   1.000  H
  C19      1.0000 0.25000  0.03800  0.46811  Biso   1.000  C
  C20      1.0000 0.08284  0.95844  0.45042  Biso   1.000  C
  H26      1.0000 0.01660  0.69831  0.23490  Biso   1.000  H
  H27      1.0000 0.12326  0.66922  0.20448  Biso   1.000  H
  N13      1.0000 0.14386  0.78652  0.23409  Biso   1.000  N
  C21      1.0000 0.42211  0.85658  0.24615  Biso   1.000  C
  C22      1.0000 0.25000  0.81092  0.21037  Biso   1.000  C
  C23      1.0000 0.39830  0.10120  0.41086  Biso   1.000  C
  N14      1.0000 0.14456  0.03279  0.44135  Biso   1.000  N
  H28      1.0000 0.25000  0.08919  0.48910  Biso   1.000  H
  O6       1.0000 0.98496  0.94181  0.43581  Biso   1.000  O
  C24      1.0000 0.07789  0.85658  0.24615  Biso   1.000  C
  N15      1.0000 0.35501  0.93146  0.23893  Biso   1.000  N
  O7       1.0000 0.52173  0.85605  0.25974  Biso   1.000  O
  H29      1.0000 0.25000  0.79153  0.17761  Biso   1.000  H
  C25      1.0000 0.25000  0.91318  0.21444  Biso   1.000  C
  N16      1.0000 0.35553  0.09731  0.36317  Biso   1.000  N
  H30      1.0000 0.48253  0.09784  0.41020  Biso   1.000  H
  H31      1.0000 0.37735  0.15794  0.42411  Biso   1.000  H
  C26      1.0000 0.10170  0.10120  0.41086  Biso   1.000  C
  N17      1.0000 0.14499  0.93146  0.23893  Biso   1.000  N
  O8       1.0000 0.97818  0.85605  0.25974  Biso   1.000  O
  C27      1.0000 0.39882  0.01959  0.24643  Biso   1.000  C
  H32      1.0000 0.25000  0.94089  0.18339  Biso   1.000  H
  C28      1.0000 0.41412  0.05403  0.32933  Biso   1.000  C
  C29      1.0000 0.25000  0.13933  0.34601  Biso   1.000  C
  N18      1.0000 0.14447  0.09731  0.36317  Biso   1.000  N
  H33      1.0000 0.01747  0.09784  0.41020  Biso   1.000  H
  H34      1.0000 0.12257  0.15794  0.42411  Biso   1.000  H
  C30      1.0000 0.10118  0.01959  0.24643  Biso   1.000  C
  H35      1.0000 0.48296  0.01709  0.24790  Biso   1.000  H
  H36      1.0000 0.37796  0.05568  0.21969  Biso   1.000  H
  N19      1.0000 0.35631  0.06162  0.28830  Biso   1.000  N
  O9       1.0000 0.50861  0.01702  0.33420  Biso   1.000  O
  C31      1.0000 0.25000  0.11360  0.29219  Biso   1.000  C
  C32      1.0000 0.25000  0.23842  0.35519  Biso   1.000  C
  C33      1.0000 0.08588  0.05403  0.32933  Biso   1.000  C
  H37      1.0000 0.01704  0.01709  0.24790  Biso   1.000  H
  H38      1.0000 0.12196  0.05568  0.21969  Biso   1.000  H
  N20      1.0000 0.14369  0.06162  0.28830  Biso   1.000  N
  C34      1.0000 0.25000  0.18888  0.25760  Biso   1.000  C
  H39      1.0000 0.17933  0.26369  0.34341  Biso   1.000  H
  H40      1.0000 0.31528  0.26488  0.33970  Biso   1.000  H
  H41      1.0000 0.25539  0.24898  0.38830  Biso   1.000  H
  H42      1.0000 0.32067  0.26369  0.34341  Biso   1.000  H
  H43      1.0000 0.18472  0.26488  0.33970  Biso   1.000  H
  H44      1.0000 0.24461  0.24898  0.38830  Biso   1.000  H
  O10      1.0000 0.99139  0.01702  0.33420  Biso   1.000  O
  H45      1.0000 0.17898  0.22160  0.26051  Biso   1.000  H
  H46      1.0000 0.25617  0.16579  0.22631  Biso   1.000  H
  H47      1.0000 0.31476  0.22701  0.26381  Biso   1.000  H
  H48      1.0000 0.32102  0.22160  0.26051  Biso   1.000  H
  H49      1.0000 0.24383  0.16579  0.22631  Biso   1.000  H
  H50      1.0000 0.18515  0.22701  0.26381  Biso   1.000  H
  N21      1.0000 0.64534  0.36509  0.57565  Biso   1.000  N
  C35      1.0000 0.58136  0.29357  0.56006  Biso   1.000  C
  C36      1.0000 0.75000  0.37729  0.54891  Biso   1.000  C
  C37      1.0000 0.60031  0.42710  0.60957  Biso   1.000  C
  N22      1.0000 0.64491  0.25208  0.52617  Biso   1.000  N
  O11      1.0000 0.48540  0.27332  0.57418  Biso   1.000  O
  C38      1.0000 0.75000  0.29753  0.51489  Biso   1.000  C
  H51      1.0000 0.75000  0.43363  0.53210  Biso   1.000  H
  N23      1.0000 0.85457  0.36509  0.57565  Biso   1.000  N
  H52      1.0000 0.51617  0.42262  0.61009  Biso   1.000  H
  H53      1.0000 0.62005  0.48648  0.59968  Biso   1.000  H
  N24      1.0000 0.64395  0.41318  0.65624  Biso   1.000  N
  C39      1.0000 0.60101  0.17641  0.50168  Biso   1.000  C
  H54      1.0000 0.75000  0.31713  0.48220  Biso   1.000  H
  N25      1.0000 0.85509  0.25208  0.52617  Biso   1.000  N
  C40      1.0000 0.91855  0.29357  0.56006  Biso   1.000  C
  C41      1.0000 0.89969  0.42710  0.60957  Biso   1.000  C
  C42      1.0000 0.75000  0.44993  0.67614  Biso   1.000  C
  C43      1.0000 0.58588  0.35849  0.68704  Biso   1.000  C
  H55      1.0000 0.51678  0.17667  0.50361  Biso   1.000  H
  H56      1.0000 0.62187  0.18149  0.46889  Biso   1.000  H
  N26      1.0000 0.64352  0.09203  0.51924  Biso   1.000  N
  C44      1.0000 0.89899  0.17641  0.50168  Biso   1.000  C
  O12      1.0000 0.01460  0.27332  0.57418  Biso   1.000  O
  H57      1.0000 0.98374  0.42262  0.61009  Biso   1.000  H
  H58      1.0000 0.87987  0.48648  0.59968  Biso   1.000  H
  N27      1.0000 0.85596  0.41318  0.65624  Biso   1.000  N
  C45      1.0000 0.75000  0.40949  0.72737  Biso   1.000  C
  C46      1.0000 0.75000  0.54981  0.67411  Biso   1.000  C
  N28      1.0000 0.64378  0.35625  0.72747  Biso   1.000  N
  O13      1.0000 0.49339  0.32247  0.67873  Biso   1.000  O
  C47      1.0000 0.75000  0.04921  0.50448  Biso   1.000  C
  C48      1.0000 0.58275  0.04163  0.54958  Biso   1.000  C
  N29      1.0000 0.85648  0.09203  0.51924  Biso   1.000  N
  H59      1.0000 0.98314  0.17667  0.50361  Biso   1.000  H
  H60      1.0000 0.87804  0.18149  0.46889  Biso   1.000  H
  C49      1.0000 0.91412  0.35849  0.68704  Biso   1.000  C
  N30      1.0000 0.85614  0.35625  0.72747  Biso   1.000  N
  C50      1.0000 0.75000  0.47678  0.76752  Biso   1.000  C
  H61      1.0000 0.67907  0.57191  0.68739  Biso   1.000  H
  H62      1.0000 0.75574  0.56861  0.64201  Biso   1.000  H
  H63      1.0000 0.81502  0.57217  0.69149  Biso   1.000  H
  H64      1.0000 0.82084  0.57191  0.68739  Biso   1.000  H
  H65      1.0000 0.74418  0.56861  0.64201  Biso   1.000  H
  H66      1.0000 0.68498  0.57217  0.69149  Biso   1.000  H
  C51      1.0000 0.60092  0.30301  0.76629  Biso   1.000  C
  H67      1.0000 0.75000  0.03853  0.47060  Biso   1.000  H
  C52      1.0000 0.75000  0.96200  0.53189  Biso   1.000  C
  O14      1.0000 0.48496  0.05819  0.56419  Biso   1.000  O
  N31      1.0000 0.64456  0.96721  0.55865  Biso   1.000  N
  C53      1.0000 0.91716  0.04163  0.54958  Biso   1.000  C
  O15      1.0000 0.00652  0.32247  0.67873  Biso   1.000  O
  C54      1.0000 0.89908  0.30301  0.76629  Biso   1.000  C
  H68      1.0000 0.82041  0.51082  0.76650  Biso   1.000  H
  H69      1.0000 0.74531  0.44643  0.79699  Biso   1.000  H
  H70      1.0000 0.68428  0.51537  0.76430  Biso   1.000  H
  H71      1.0000 0.67959  0.51082  0.76650  Biso   1.000  H
  H72      1.0000 0.75469  0.44643  0.79699  Biso   1.000  H
  H73      1.0000 0.81572  0.51537  0.76430  Biso   1.000  H
  H74      1.0000 0.51660  0.30169  0.76510  Biso   1.000  H
  H75      1.0000 0.62326  0.33078  0.79552  Biso   1.000  H
  N32      1.0000 0.64386  0.21348  0.76591  Biso   1.000  N
  H76      1.0000 0.75000  0.91081  0.51090  Biso   1.000  H
  N33      1.0000 0.85535  0.96721  0.55865  Biso   1.000  N
  C55      1.0000 0.60170  0.89880  0.58914  Biso   1.000  C
  O16      1.0000 0.01495  0.05819  0.56419  Biso   1.000  O
  H77      1.0000 0.98340  0.30169  0.76510  Biso   1.000  H
  H78      1.0000 0.87665  0.33078  0.79552  Biso   1.000  H
  N34      1.0000 0.85605  0.21348  0.76591  Biso   1.000  N
  C56      1.0000 0.57789  0.14342  0.75385  Biso   1.000  C
  C57      1.0000 0.75000  0.18908  0.78963  Biso   1.000  C
  C58      1.0000 0.89830  0.89880  0.58914  Biso   1.000  C
  H79      1.0000 0.51747  0.90223  0.58980  Biso   1.000  H
  H80      1.0000 0.62257  0.84213  0.57589  Biso   1.000  H
  N35      1.0000 0.64447  0.90269  0.63683  Biso   1.000  N
  C59      1.0000 0.92211  0.14342  0.75385  Biso   1.000  C
  N36      1.0000 0.64499  0.06854  0.76111  Biso   1.000  N
  O17      1.0000 0.47818  0.14395  0.74026  Biso   1.000  O
  C60      1.0000 0.75000  0.08682  0.78560  Biso   1.000  C
  H81      1.0000 0.75000  0.20847  0.82239  Biso   1.000  H
  H82      1.0000 0.98244  0.90223  0.58980  Biso   1.000  H
  H83      1.0000 0.87735  0.84213  0.57589  Biso   1.000  H
  N37      1.0000 0.85544  0.90269  0.63683  Biso   1.000  N
  C61      1.0000 0.75000  0.86067  0.65399  Biso   1.000  C
  C62      1.0000 0.58588  0.94597  0.67067  Biso   1.000  C
  N38      1.0000 0.85501  0.06854  0.76111  Biso   1.000  N
  O18      1.0000 0.02173  0.14395  0.74026  Biso   1.000  O
  C63      1.0000 0.60118  0.98041  0.75357  Biso   1.000  C
  H84      1.0000 0.75000  0.05911  0.81661  Biso   1.000  H
  C64      1.0000 0.91412  0.94597  0.67067  Biso   1.000  C
  C65      1.0000 0.75000  0.88640  0.70781  Biso   1.000  C
  C66      1.0000 0.75000  0.76158  0.64481  Biso   1.000  C
  N39      1.0000 0.64369  0.93845  0.71170  Biso   1.000  N
  O19      1.0000 0.49139  0.98298  0.66580  Biso   1.000  O
  C67      1.0000 0.89882  0.98041  0.75357  Biso   1.000  C
  H85      1.0000 0.51695  0.98291  0.75210  Biso   1.000  H
  H86      1.0000 0.62196  0.94432  0.78031  Biso   1.000  H
  N40      1.0000 0.85631  0.93845  0.71170  Biso   1.000  N
  O20      1.0000 0.00861  0.98298  0.66580  Biso   1.000  O
  C68      1.0000 0.75000  0.81112  0.74240  Biso   1.000  C
  H87      1.0000 0.67924  0.73631  0.65659  Biso   1.000  H
  H88      1.0000 0.81528  0.73512  0.66030  Biso   1.000  H
  H89      1.0000 0.75539  0.75102  0.61170  Biso   1.000  H
  H90      1.0000 0.82067  0.73631  0.65659  Biso   1.000  H
  H91      1.0000 0.68472  0.73512  0.66030  Biso   1.000  H
  H92      1.0000 0.74461  0.75102  0.61170  Biso   1.000  H
  H93      1.0000 0.98296  0.98291  0.75210  Biso   1.000  H
  H94      1.0000 0.87796  0.94432  0.78031  Biso   1.000  H
  H95      1.0000 0.67898  0.77840  0.73949  Biso   1.000  H
  H96      1.0000 0.75617  0.83421  0.77369  Biso   1.000  H
  H97      1.0000 0.81476  0.77299  0.73619  Biso   1.000  H
  H98      1.0000 0.82102  0.77840  0.73949  Biso   1.000  H
  H99      1.0000 0.74374  0.83421  0.77369  Biso   1.000  H
  H100     1.0000 0.68515  0.77299  0.73619  Biso   1.000  H
  C69      1.0000 0.75000  0.41318  0.28556  Biso   1.000  C
  N41      1.0000 0.64499  0.43146  0.26111  Biso   1.000  N
  C70      1.0000 0.75000  0.31092  0.28963  Biso   1.000  C
  H101     1.0000 0.75000  0.44089  0.31661  Biso   1.000  H
  N42      1.0000 0.85501  0.43146  0.26111  Biso   1.000  N
  C71      1.0000 0.57789  0.35658  0.25385  Biso   1.000  C
  C72      1.0000 0.60118  0.51959  0.25357  Biso   1.000  C
  N43      1.0000 0.64386  0.28652  0.26591  Biso   1.000  N
  H102     1.0000 0.75000  0.29153  0.32239  Biso   1.000  H
  N44      1.0000 0.85605  0.28652  0.26591  Biso   1.000  N
  C73      1.0000 0.92211  0.35658  0.25385  Biso   1.000  C
  C74      1.0000 0.89882  0.51959  0.25357  Biso   1.000  C
  O21      1.0000 0.47818  0.35605  0.24026  Biso   1.000  O
  H103     1.0000 0.51695  0.51709  0.25210  Biso   1.000  H
  H104     1.0000 0.62196  0.55568  0.28031  Biso   1.000  H
  N45      1.0000 0.64369  0.56155  0.21170  Biso   1.000  N
  C75      1.0000 0.60092  0.19699  0.26629  Biso   1.000  C
  C76      1.0000 0.89908  0.19699  0.26629  Biso   1.000  C
  O22      1.0000 0.02173  0.35605  0.24026  Biso   1.000  O
  H105     1.0000 0.98296  0.51709  0.25210  Biso   1.000  H
  H106     1.0000 0.87796  0.55568  0.28031  Biso   1.000  H
  N46      1.0000 0.85631  0.56155  0.21170  Biso   1.000  N
  C77      1.0000 0.58588  0.55403  0.17067  Biso   1.000  C
  C78      1.0000 0.75000  0.61360  0.20781  Biso   1.000  C
  H107     1.0000 0.51660  0.19831  0.26510  Biso   1.000  H
  H108     1.0000 0.62326  0.16922  0.29552  Biso   1.000  H
  N47      1.0000 0.64378  0.14375  0.22747  Biso   1.000  N
  N48      1.0000 0.85614  0.14375  0.22747  Biso   1.000  N
  H109     1.0000 0.98340  0.19831  0.26510  Biso   1.000  H
  H110     1.0000 0.87665  0.16922  0.29552  Biso   1.000  H
  C79      1.0000 0.91412  0.55403  0.17067  Biso   1.000  C
  N49      1.0000 0.64447  0.59731  0.13683  Biso   1.000  N
  O23      1.0000 0.49139  0.51702  0.16580  Biso   1.000  O
  C80      1.0000 0.75000  0.63933  0.15399  Biso   1.000  C
  C81      1.0000 0.75000  0.68888  0.24240  Biso   1.000  C
  C82      1.0000 0.58588  0.14151  0.18704  Biso   1.000  C
  C83      1.0000 0.75000  0.09051  0.22737  Biso   1.000  C
  C84      1.0000 0.91412  0.14151  0.18704  Biso   1.000  C
  N50      1.0000 0.85544  0.59731  0.13683  Biso   1.000  N
  O24      1.0000 0.00861  0.51702  0.16580  Biso   1.000  O
  C85      1.0000 0.60170  0.60120  0.08914  Biso   1.000  C
  C86      1.0000 0.75000  0.73842  0.14481  Biso   1.000  C
  H111     1.0000 0.82102  0.72160  0.23949  Biso   1.000  H
  H112     1.0000 0.74374  0.66579  0.27369  Biso   1.000  H
  H113     1.0000 0.68515  0.72701  0.23619  Biso   1.000  H
  H114     1.0000 0.67898  0.72160  0.23949  Biso   1.000  H
  H115     1.0000 0.75617  0.66579  0.27369  Biso   1.000  H
  H116     1.0000 0.81476  0.72701  0.23619  Biso   1.000  H
  N51      1.0000 0.64395  0.08682  0.15624  Biso   1.000  N
  O25      1.0000 0.49339  0.17753  0.17873  Biso   1.000  O
  C87      1.0000 0.75000  0.05007  0.17614  Biso   1.000  C
  C88      1.0000 0.75000  0.02322  0.26748  Biso   1.000  C
  N52      1.0000 0.85596  0.08682  0.15624  Biso   1.000  N
  O26      1.0000 0.00652  0.17753  0.17873  Biso   1.000  O
  C89      1.0000 0.89830  0.60120  0.08914  Biso   1.000  C
  H117     1.0000 0.51747  0.59784  0.08980  Biso   1.000  H
  H118     1.0000 0.62257  0.65794  0.07589  Biso   1.000  H
  N53      1.0000 0.64456  0.53279  0.05865  Biso   1.000  N
  H119     1.0000 0.82067  0.76369  0.15659  Biso   1.000  H
  H120     1.0000 0.68472  0.76488  0.16030  Biso   1.000  H
  H121     1.0000 0.74461  0.74898  0.11170  Biso   1.000  H
  H122     1.0000 0.67924  0.76369  0.15659  Biso   1.000  H
  H123     1.0000 0.81528  0.76488  0.16030  Biso   1.000  H
  H124     1.0000 0.75539  0.74898  0.11170  Biso   1.000  H
  C90      1.0000 0.60031  0.07290  0.10957  Biso   1.000  C
  C91      1.0000 0.75000  0.95019  0.17411  Biso   1.000  C
  H125     1.0000 0.75469  0.05357  0.29699  Biso   1.000  H
  H126     1.0000 0.74531  0.05357  0.29699  Biso   1.000  H
  H127     1.0000 0.67959  0.98918  0.26650  Biso   1.000  H
  H128     1.0000 0.81572  0.98463  0.26430  Biso   1.000  H
  H129     1.0000 0.82041  0.98918  0.26650  Biso   1.000  H
  H130     1.0000 0.68428  0.98463  0.26430  Biso   1.000  H
  C92      1.0000 0.89969  0.07290  0.10957  Biso   1.000  C
  H131     1.0000 0.98244  0.59784  0.08980  Biso   1.000  H
  H132     1.0000 0.87735  0.65794  0.07589  Biso   1.000  H
  N54      1.0000 0.85535  0.53279  0.05865  Biso   1.000  N
  C93      1.0000 0.58275  0.45837  0.04958  Biso   1.000  C
  C94      1.0000 0.75000  0.53800  0.03189  Biso   1.000  C
  H133     1.0000 0.51617  0.07738  0.11009  Biso   1.000  H
  H134     1.0000 0.62005  0.01352  0.09968  Biso   1.000  H
  N55      1.0000 0.64534  0.13491  0.07565  Biso   1.000  N
  H135     1.0000 0.82084  0.92809  0.18739  Biso   1.000  H
  H136     1.0000 0.74418  0.93139  0.14201  Biso   1.000  H
  H137     1.0000 0.68498  0.92783  0.19149  Biso   1.000  H
  H138     1.0000 0.67907  0.92809  0.18739  Biso   1.000  H
  H139     1.0000 0.75574  0.93139  0.14201  Biso   1.000  H
  H140     1.0000 0.81502  0.92783  0.19149  Biso   1.000  H
  H141     1.0000 0.98374  0.07738  0.11009  Biso   1.000  H
  H142     1.0000 0.87987  0.01352  0.09968  Biso   1.000  H
  N56      1.0000 0.85457  0.13491  0.07565  Biso   1.000  N
  C95      1.0000 0.91716  0.45837  0.04958  Biso   1.000  C
  N57      1.0000 0.64352  0.40804  0.01924  Biso   1.000  N
  O27      1.0000 0.48496  0.44181  0.06419  Biso   1.000  O
  H143     1.0000 0.75000  0.58919  0.01090  Biso   1.000  H
  C96      1.0000 0.75000  0.45079  0.00448  Biso   1.000  C
  C97      1.0000 0.58136  0.20643  0.06006  Biso   1.000  C
  C98      1.0000 0.75000  0.12271  0.04891  Biso   1.000  C
  C99      1.0000 0.91855  0.20643  0.06006  Biso   1.000  C
  N58      1.0000 0.85648  0.40804  0.01924  Biso   1.000  N
  O28      1.0000 0.01495  0.44181  0.06419  Biso   1.000  O
  C100     1.0000 0.60101  0.32359  0.00168  Biso   1.000  C
  H144     1.0000 0.75000  0.46147  0.97060  Biso   1.000  H
  N59      1.0000 0.64491  0.24792  0.02617  Biso   1.000  N
  O29      1.0000 0.48540  0.22668  0.07418  Biso   1.000  O
  C101     1.0000 0.75000  0.20253  0.01489  Biso   1.000  C
  H145     1.0000 0.75000  0.06637  0.03210  Biso   1.000  H
  N60      1.0000 0.85509  0.24792  0.02617  Biso   1.000  N
  O30      1.0000 0.01460  0.22668  0.07418  Biso   1.000  O
  C102     1.0000 0.89899  0.32359  0.00168  Biso   1.000  C
  H146     1.0000 0.51678  0.32333  0.00361  Biso   1.000  H
  H147     1.0000 0.62187  0.31851  0.96889  Biso   1.000  H
  H148     1.0000 0.75000  0.18287  0.98220  Biso   1.000  H
  H149     1.0000 0.98314  0.32333  0.00361  Biso   1.000  H
  H150     1.0000 0.87804  0.31851  0.96889  Biso   1.000  H
  C103     1.0000 0.25000  0.58682  0.71444  Biso   1.000  C
  C104     1.0000 0.25000  0.68908  0.71037  Biso   1.000  C
  H151     1.0000 0.25000  0.55911  0.68339  Biso   1.000  H
  N61      1.0000 0.14499  0.56854  0.73893  Biso   1.000  N
  N62      1.0000 0.35501  0.56854  0.73893  Biso   1.000  N
  H152     1.0000 0.25000  0.70854  0.67761  Biso   1.000  H
  N63      1.0000 0.14386  0.71348  0.73409  Biso   1.000  N
  N64      1.0000 0.35605  0.71348  0.73409  Biso   1.000  N
  C105     1.0000 0.07789  0.64342  0.74615  Biso   1.000  C
  C106     1.0000 0.10118  0.48041  0.74643  Biso   1.000  C
  C107     1.0000 0.42211  0.64342  0.74615  Biso   1.000  C
  C108     1.0000 0.39882  0.48041  0.74643  Biso   1.000  C
  C109     1.0000 0.10092  0.80301  0.73371  Biso   1.000  C
  C110     1.0000 0.39908  0.80301  0.73371  Biso   1.000  C
  O31      1.0000 0.97818  0.64395  0.75974  Biso   1.000  O
  H153     1.0000 0.01704  0.48291  0.74790  Biso   1.000  H
  H154     1.0000 0.12196  0.44432  0.71969  Biso   1.000  H
  N65      1.0000 0.14369  0.43845  0.78830  Biso   1.000  N
  O32      1.0000 0.52173  0.64395  0.75974  Biso   1.000  O
  H155     1.0000 0.48296  0.48291  0.74790  Biso   1.000  H
  H156     1.0000 0.37796  0.44432  0.71969  Biso   1.000  H
  N66      1.0000 0.35631  0.43845  0.78830  Biso   1.000  N
  H157     1.0000 0.01660  0.80169  0.73490  Biso   1.000  H
  H158     1.0000 0.12326  0.83078  0.70452  Biso   1.000  H
  N67      1.0000 0.14378  0.85625  0.77253  Biso   1.000  N
  H159     1.0000 0.48340  0.80169  0.73490  Biso   1.000  H
  H160     1.0000 0.37665  0.83078  0.70452  Biso   1.000  H
  N68      1.0000 0.35622  0.85625  0.77253  Biso   1.000  N
  C111     1.0000 0.08588  0.44604  0.82933  Biso   1.000  C
  C112     1.0000 0.25000  0.38640  0.79219  Biso   1.000  C
  C113     1.0000 0.41412  0.44604  0.82933  Biso   1.000  C
  C114     1.0000 0.08588  0.85849  0.81296  Biso   1.000  C
  C115     1.0000 0.25000  0.90949  0.77263  Biso   1.000  C
  C116     1.0000 0.41412  0.85849  0.81296  Biso   1.000  C
  N69      1.0000 0.14447  0.40269  0.86317  Biso   1.000  N
  O33      1.0000 0.99139  0.48298  0.83420  Biso   1.000  O
  C117     1.0000 0.25000  0.36073  0.84601  Biso   1.000  C
  C118     1.0000 0.25000  0.31112  0.75760  Biso   1.000  C
  N70      1.0000 0.35553  0.40269  0.86317  Biso   1.000  N
  O34      1.0000 0.50861  0.48298  0.83420  Biso   1.000  O
  N71      1.0000 0.14404  0.91318  0.84376  Biso   1.000  N
  O35      1.0000 0.99339  0.82247  0.82127  Biso   1.000  O
  C119     1.0000 0.25000  0.94993  0.82386  Biso   1.000  C
  C120     1.0000 0.25000  0.97678  0.73252  Biso   1.000  C
  N72      1.0000 0.35596  0.91318  0.84376  Biso   1.000  N
  O36      1.0000 0.50652  0.82247  0.82127  Biso   1.000  O
  C121     1.0000 0.10170  0.39880  0.91086  Biso   1.000  C
  C122     1.0000 0.25000  0.26158  0.85519  Biso   1.000  C
  H161     1.0000 0.32102  0.27840  0.76051  Biso   1.000  H
  H162     1.0000 0.24383  0.33421  0.72631  Biso   1.000  H
  H163     1.0000 0.18515  0.27299  0.76381  Biso   1.000  H
  H164     1.0000 0.17898  0.27840  0.76051  Biso   1.000  H
  H165     1.0000 0.25617  0.33421  0.72631  Biso   1.000  H
  H166     1.0000 0.31476  0.27299  0.76381  Biso   1.000  H
  C123     1.0000 0.39830  0.39880  0.91086  Biso   1.000  C
  C124     1.0000 0.10031  0.92710  0.89043  Biso   1.000  C
  C125     1.0000 0.25000  0.04981  0.82589  Biso   1.000  C
  H167     1.0000 0.25469  0.94643  0.70301  Biso   1.000  H
  H168     1.0000 0.24531  0.94643  0.70301  Biso   1.000  H
  H169     1.0000 0.17959  0.01082  0.73350  Biso   1.000  H
  H170     1.0000 0.31572  0.01544  0.73570  Biso   1.000  H
  H171     1.0000 0.32041  0.01082  0.73350  Biso   1.000  H
  H172     1.0000 0.18428  0.01544  0.73570  Biso   1.000  H
  C126     1.0000 0.39969  0.92710  0.89043  Biso   1.000  C
  H173     1.0000 0.01747  0.40223  0.91020  Biso   1.000  H
  H174     1.0000 0.12257  0.34213  0.92411  Biso   1.000  H
  N73      1.0000 0.14456  0.46721  0.94135  Biso   1.000  N
  H175     1.0000 0.32067  0.23631  0.84341  Biso   1.000  H
  H176     1.0000 0.18472  0.23512  0.83970  Biso   1.000  H
  H177     1.0000 0.24461  0.25102  0.88830  Biso   1.000  H
  H178     1.0000 0.17933  0.23631  0.84341  Biso   1.000  H
  H179     1.0000 0.31528  0.23512  0.83970  Biso   1.000  H
  H180     1.0000 0.25539  0.25102  0.88830  Biso   1.000  H
  H181     1.0000 0.48253  0.40223  0.91020  Biso   1.000  H
  H182     1.0000 0.37735  0.34213  0.92411  Biso   1.000  H
  N74      1.0000 0.35535  0.46721  0.94135  Biso   1.000  N
  H183     1.0000 0.01617  0.92262  0.88991  Biso   1.000  H
  H184     1.0000 0.12013  0.98648  0.90032  Biso   1.000  H
  N75      1.0000 0.14543  0.86509  0.92435  Biso   1.000  N
  H185     1.0000 0.32093  0.07191  0.81261  Biso   1.000  H
  H186     1.0000 0.24418  0.06861  0.85799  Biso   1.000  H
  H187     1.0000 0.18498  0.07224  0.80851  Biso   1.000  H
  H188     1.0000 0.17907  0.07191  0.81261  Biso   1.000  H
  H189     1.0000 0.25582  0.06861  0.85799  Biso   1.000  H
  H190     1.0000 0.31502  0.07224  0.80851  Biso   1.000  H
  H191     1.0000 0.48374  0.92262  0.88991  Biso   1.000  H
  H192     1.0000 0.37987  0.98648  0.90032  Biso   1.000  H
  N76      1.0000 0.35457  0.86509  0.92435  Biso   1.000  N
  C127     1.0000 0.08284  0.54163  0.95042  Biso   1.000  C
  C128     1.0000 0.25000  0.46200  0.96811  Biso   1.000  C
  C129     1.0000 0.41716  0.54163  0.95042  Biso   1.000  C
  C130     1.0000 0.08136  0.79357  0.93994  Biso   1.000  C
  C131     1.0000 0.25000  0.87729  0.95109  Biso   1.000  C
  C132     1.0000 0.41855  0.79357  0.93994  Biso   1.000  C
  N77      1.0000 0.14352  0.59203  0.98080  Biso   1.000  N
  O37      1.0000 0.98496  0.55819  0.93581  Biso   1.000  O
  H193     1.0000 0.25000  0.41081  0.98910  Biso   1.000  H
  C133     1.0000 0.25000  0.54921  0.99552  Biso   1.000  C
  N78      1.0000 0.35648  0.59203  0.98080  Biso   1.000  N
  O38      1.0000 0.51495  0.55819  0.93581  Biso   1.000  O
  N79      1.0000 0.14491  0.75208  0.97383  Biso   1.000  N
  O39      1.0000 0.98540  0.77332  0.92582  Biso   1.000  O
  C134     1.0000 0.25000  0.79753  0.98511  Biso   1.000  C
  H194     1.0000 0.25000  0.93363  0.96790  Biso   1.000  H
  N80      1.0000 0.35509  0.75208  0.97383  Biso   1.000  N
  O40      1.0000 0.51460  0.77332  0.92582  Biso   1.000  O
  C135     1.0000 0.10101  0.67641  0.99832  Biso   1.000  C
  H195     1.0000 0.25000  0.53853  0.02940  Biso   1.000  H
  C136     1.0000 0.39899  0.67641  0.99832  Biso   1.000  C
  H196     1.0000 0.25000  0.81713  0.01780  Biso   1.000  H
  H197     1.0000 0.01678  0.67667  0.99639  Biso   1.000  H
  H198     1.0000 0.12187  0.68149  0.03111  Biso   1.000  H
  H199     1.0000 0.48322  0.67667  0.99639  Biso   1.000  H
  H200     1.0000 0.37813  0.68149  0.03111  Biso   1.000  H
