data_image0
_cell_length_a       24.075
_cell_length_b       24.075
_cell_length_c       10.715
_cell_angle_alpha    90
_cell_angle_beta     90
_cell_angle_gamma    120

_symmetry_space_group_name_H-M    "P 1"
_symmetry_int_tables_number       1

loop_
  _symmetry_equiv_pos_as_xyz
  'x, y, z'

loop_
  _atom_site_label
  _atom_site_occupancy
  _atom_site_fract_x
  _atom_site_fract_y
  _atom_site_fract_z
  _atom_site_thermal_displace_type
  _atom_site_B_iso_or_equiv
  _atom_site_type_symbol
  C1       1.0000 0.91210  0.80232  0.16080  Biso   1.000  C
  C2       1.0000 0.93214  0.82860  0.27895  Biso   1.000  C
  C3       1.0000 0.93210  0.82860  0.27895  Biso   1.000  C
  C4       1.0000 0.95613  0.80313  0.07597  Biso   1.000  C
  C5       1.0000 0.95610  0.80309  0.07597  Biso   1.000  C
  H1       1.0000 0.86820  0.78371  0.13803  Biso   1.000  H
  C6       1.0000 0.88242  0.81863  0.36930  Biso   1.000  C
  C7       1.0000 0.88239  0.81858  0.36930  Biso   1.000  C
  C8       1.0000 0.99635  0.85585  0.31227  Biso   1.000  C
  C9       1.0000 0.91208  0.80227  0.16080  Biso   1.000  C
  C10      1.0000 0.99629  0.85580  0.31227  Biso   1.000  C
  C11      1.0000 0.93343  0.77594  0.94932  Biso   1.000  C
  C12      1.0000 0.93341  0.77589  0.94932  Biso   1.000  C
  C13      1.0000 0.02040  0.83033  0.10929  Biso   1.000  C
  C14      1.0000 0.02033  0.83028  0.10929  Biso   1.000  C
  N1       1.0000 0.82523  0.78491  0.35399  Biso   1.000  N
  N2       1.0000 0.82519  0.78491  0.35399  Biso   1.000  N
  H2       1.0000 0.89621  0.84031  0.44685  Biso   1.000  H
  H3       1.0000 0.01004  0.87383  0.39300  Biso   1.000  H
  C15      1.0000 0.04046  0.85666  0.22753  Biso   1.000  C
  H4       1.0000 0.00998  0.87378  0.39300  Biso   1.000  H
  C16      1.0000 0.04044  0.85661  0.22753  Biso   1.000  C
  H5       1.0000 0.89094  0.76424  0.92608  Biso   1.000  H
  N3       1.0000 0.96670  0.76788  0.87354  Biso   1.000  N
  H6       1.0000 0.89088  0.76419  0.92608  Biso   1.000  H
  H7       1.0000 0.05042  0.83081  0.05142  Biso   1.000  H
  C17      1.0000 0.78390  0.78150  0.46972  Biso   1.000  C
  C18      1.0000 0.10815  0.88803  0.26402  Biso   1.000  C
  C19      1.0000 0.10808  0.88798  0.26402  Biso   1.000  C
  C20      1.0000 0.94171  0.73460  0.75754  Biso   1.000  C
  C21      1.0000 0.74022  0.80280  0.41325  Biso   1.000  C
  H8       1.0000 0.81081  0.81090  0.53691  Biso   1.000  H
  H9       1.0000 0.75930  0.73728  0.50313  Biso   1.000  H
  N4       1.0000 0.12900  0.90390  0.37564  Biso   1.000  N
  H10      1.0000 0.13884  0.89733  0.19991  Biso   1.000  H
  H11      1.0000 0.13878  0.89729  0.19991  Biso   1.000  H
  C22      1.0000 0.98382  0.78400  0.65833  Biso   1.000  C
  C23      1.0000 0.90330  0.72822  0.70107  Biso   1.000  C
  H12      1.0000 0.89608  0.72208  0.74699  Biso   1.000  H
  H13      1.0000 0.94569  0.69570  0.75296  Biso   1.000  H
  N5       1.0000 0.77494  0.87100  0.37564  Biso   1.000  N
  C24      1.0000 0.69986  0.76404  0.30266  Biso   1.000  C
  N6       1.0000 0.77490  0.87100  0.37564  Biso   1.000  N
  C25      1.0000 0.69980  0.76400  0.30266  Biso   1.000  C
  C26      1.0000 0.70400  0.80539  0.53672  Biso   1.000  C
  C27      1.0000 0.19723  0.93743  0.41325  Biso   1.000  C
  C28      1.0000 0.19721  0.93738  0.41325  Biso   1.000  C
  N7       1.0000 0.96831  0.83431  0.65320  Biso   1.000  N
  H14      1.0000 0.97633  0.76304  0.57573  Biso   1.000  H
  H15      1.0000 0.97630  0.76299  0.57573  Biso   1.000  H
  H16      1.0000 0.02973  0.80222  0.67970  Biso   1.000  H
  C29      1.0000 0.04130  0.77311  0.64928  Biso   1.000  C
  H17      1.0000 0.90670  0.71210  0.61923  Biso   1.000  H
  H18      1.0000 0.86270  0.69728  0.74055  Biso   1.000  H
  H19      1.0000 0.90479  0.76942  0.69090  Biso   1.000  H
  C30      1.0000 0.92560  0.71848  0.55044  Biso   1.000  C
  C31      1.0000 0.77991  0.89191  0.26402  Biso   1.000  C
  H20      1.0000 0.67125  0.71954  0.32870  Biso   1.000  H
  H21      1.0000 0.67420  0.78251  0.27224  Biso   1.000  H
  H22      1.0000 0.67119  0.71949  0.32870  Biso   1.000  H
  H23      1.0000 0.72800  0.76491  0.23584  Biso   1.000  H
  H24      1.0000 0.73572  0.83153  0.60009  Biso   1.000  H
  H25      1.0000 0.67683  0.76184  0.56864  Biso   1.000  H
  H26      1.0000 0.67743  0.82453  0.51666  Biso   1.000  H
  H27      1.0000 0.73570  0.83148  0.60009  Biso   1.000  H
  H28      1.0000 0.67680  0.76179  0.56864  Biso   1.000  H
  H29      1.0000 0.67737  0.82448  0.51666  Biso   1.000  H
  C32      1.0000 0.19465  0.89863  0.53672  Biso   1.000  C
  C33      1.0000 0.23600  0.93580  0.30266  Biso   1.000  C
  C34      1.0000 0.19459  0.89858  0.53672  Biso   1.000  C
  C35      1.0000 0.21847  0.00242  0.46972  Biso   1.000  C
  C36      1.0000 0.01411  0.89052  0.67205  Biso   1.000  C
  C37      1.0000 0.98502  0.69752  0.70714  Biso   1.000  C
  H30      1.0000 0.03671  0.74731  0.57508  Biso   1.000  H
  H31      1.0000 0.04279  0.75042  0.72394  Biso   1.000  H
  H32      1.0000 0.08102  0.81450  0.64312  Biso   1.000  H
  H33      1.0000 0.88479  0.71829  0.54942  Biso   1.000  H
  H34      1.0000 0.91839  0.67690  0.58003  Biso   1.000  H
  H35      1.0000 0.94351  0.72639  0.46580  Biso   1.000  H
  C38      1.0000 0.81620  0.95959  0.22753  Biso   1.000  C
  H36      1.0000 0.75850  0.86122  0.19991  Biso   1.000  H
  H37      1.0000 0.28051  0.95172  0.32870  Biso   1.000  H
  H38      1.0000 0.23513  0.96314  0.23584  Biso   1.000  H
  H39      1.0000 0.21749  0.89172  0.27224  Biso   1.000  H
  H40      1.0000 0.23511  0.96309  0.23584  Biso   1.000  H
  H41      1.0000 0.16855  0.90424  0.60009  Biso   1.000  H
  H42      1.0000 0.23824  0.91503  0.56864  Biso   1.000  H
  H43      1.0000 0.16848  0.90419  0.60009  Biso   1.000  H
  H44      1.0000 0.23818  0.91498  0.56864  Biso   1.000  H
  H45      1.0000 0.17549  0.85292  0.51666  Biso   1.000  H
  H46      1.0000 0.18914  0.99993  0.53691  Biso   1.000  H
  H47      1.0000 0.18908  0.99988  0.53691  Biso   1.000  H
  N8       1.0000 0.21507  0.04031  0.35399  Biso   1.000  N
  H48      1.0000 0.26275  0.02204  0.50313  Biso   1.000  H
  H49      1.0000 0.26265  0.02199  0.50313  Biso   1.000  H
  C39      1.0000 0.00601  0.94702  0.67401  Biso   1.000  C
  H50      1.0000 0.05569  0.89652  0.68549  Biso   1.000  H
  H51      1.0000 0.95673  0.65090  0.70658  Biso   1.000  H
  H52      1.0000 0.95669  0.65090  0.70658  Biso   1.000  H
  H53      1.0000 0.00133  0.71220  0.62268  Biso   1.000  H
  H54      1.0000 0.02090  0.70879  0.76398  Biso   1.000  H
  H55      1.0000 0.00129  0.71220  0.62268  Biso   1.000  H
  C40      1.0000 0.81001  0.97968  0.10929  Biso   1.000  C
  C41      1.0000 0.80994  0.97964  0.10929  Biso   1.000  C
  C42      1.0000 0.85953  0.00371  0.31227  Biso   1.000  C
  C43      1.0000 0.85951  0.00367  0.31227  Biso   1.000  C
  C44      1.0000 0.18138  0.06381  0.36930  Biso   1.000  C
  C45      1.0000 0.94222  0.93589  0.67364  Biso   1.000  C
  C46      1.0000 0.06411  0.00630  0.67364  Biso   1.000  C
  H56      1.0000 0.78039  0.94961  0.05142  Biso   1.000  H
  C47      1.0000 0.84698  0.04391  0.07597  Biso   1.000  C
  H57      1.0000 0.86383  0.99004  0.39300  Biso   1.000  H
  H58      1.0000 0.86380  0.99000  0.39300  Biso   1.000  H
  C48      1.0000 0.89654  0.06794  0.27895  Biso   1.000  C
  C49      1.0000 0.89644  0.06789  0.27895  Biso   1.000  C
  H59      1.0000 0.15972  0.05590  0.44685  Biso   1.000  H
  C50      1.0000 0.17139  0.10348  0.27895  Biso   1.000  C
  H60      1.0000 0.15968  0.05590  0.44685  Biso   1.000  H
  C51      1.0000 0.94104  0.99403  0.67401  Biso   1.000  C
  C52      1.0000 0.94098  0.99398  0.67401  Biso   1.000  C
  H61      1.0000 0.90490  0.89450  0.67308  Biso   1.000  H
  C53      1.0000 0.05304  0.05902  0.67401  Biso   1.000  C
  C54      1.0000 0.05296  0.05902  0.67401  Biso   1.000  C
  H62      1.0000 0.10555  0.01043  0.67308  Biso   1.000  H
  H63      1.0000 0.10544  0.01038  0.67308  Biso   1.000  H
  C55      1.0000 0.84252  0.06664  0.94932  Biso   1.000  C
  C56      1.0000 0.84250  0.06659  0.94932  Biso   1.000  C
  C57      1.0000 0.89018  0.08794  0.16080  Biso   1.000  C
  C58      1.0000 0.93618  0.11763  0.36930  Biso   1.000  C
  C59      1.0000 0.93615  0.11758  0.36930  Biso   1.000  C
  C60      1.0000 0.14421  0.14050  0.31227  Biso   1.000  C
  C61      1.0000 0.19773  0.10981  0.16080  Biso   1.000  C
  C62      1.0000 0.87643  0.98592  0.67205  Biso   1.000  C
  C63      1.0000 0.99375  0.05782  0.67364  Biso   1.000  C
  C64      1.0000 0.99371  0.05782  0.67364  Biso   1.000  C
  C65      1.0000 0.10947  0.12362  0.67205  Biso   1.000  C
  N9       1.0000 0.80122  0.03331  0.87354  Biso   1.000  N
  H64      1.0000 0.87328  0.10914  0.92608  Biso   1.000  H
  H65      1.0000 0.87326  0.10909  0.92608  Biso   1.000  H
  H66      1.0000 0.91549  0.13182  0.13803  Biso   1.000  H
  N10      1.0000 0.95972  0.17484  0.35399  Biso   1.000  N
  H67      1.0000 0.94414  0.10381  0.44685  Biso   1.000  H
  N11      1.0000 0.95969  0.17480  0.35399  Biso   1.000  N
  H68      1.0000 0.94406  0.10381  0.44685  Biso   1.000  H
  C66      1.0000 0.14339  0.18381  0.22753  Biso   1.000  C
  H69      1.0000 0.12625  0.13623  0.39300  Biso   1.000  H
  H70      1.0000 0.12614  0.13619  0.39300  Biso   1.000  H
  C67      1.0000 0.19695  0.15302  0.07597  Biso   1.000  C
  C68      1.0000 0.19686  0.15302  0.07597  Biso   1.000  C
  H71      1.0000 0.21626  0.08448  0.13803  Biso   1.000  H
  N12      1.0000 0.86599  0.03168  0.65320  Biso   1.000  N
  H72      1.0000 0.84085  0.94434  0.68549  Biso   1.000  H
  H73      1.0000 0.84078  0.94429  0.68549  Biso   1.000  H
  H74      1.0000 0.98964  0.09513  0.67308  Biso   1.000  H
  H75      1.0000 0.98958  0.09508  0.67308  Biso   1.000  H
  H76      1.0000 0.10351  0.15921  0.68549  Biso   1.000  H
  N13      1.0000 0.16570  0.13398  0.65320  Biso   1.000  N
  C69      1.0000 0.79287  0.05830  0.75754  Biso   1.000  C
  C70      1.0000 0.99764  0.21614  0.46972  Biso   1.000  C
  C71      1.0000 0.99754  0.21609  0.46972  Biso   1.000  C
  C72      1.0000 0.16969  0.19005  0.10929  Biso   1.000  C
  C73      1.0000 0.11203  0.22012  0.26402  Biso   1.000  C
  C74      1.0000 0.11199  0.22012  0.26402  Biso   1.000  C
  C75      1.0000 0.22412  0.15753  0.94932  Biso   1.000  C
  C76      1.0000 0.22410  0.15748  0.94932  Biso   1.000  C
  C77      1.0000 0.80018  0.01618  0.65833  Biso   1.000  C
  C78      1.0000 0.21597  0.19979  0.65833  Biso   1.000  C
  C79      1.0000 0.82487  0.09671  0.70107  Biso   1.000  C
  H77      1.0000 0.82601  0.10391  0.74699  Biso   1.000  H
  H78      1.0000 0.75000  0.05431  0.75296  Biso   1.000  H
  H79      1.0000 0.97802  0.24070  0.50313  Biso   1.000  H
  H80      1.0000 0.97798  0.24070  0.50313  Biso   1.000  H
  C80      1.0000 0.06265  0.25983  0.41325  Biso   1.000  C
  H81      1.0000 0.00010  0.18923  0.53691  Biso   1.000  H
  C81      1.0000 0.06254  0.25979  0.41325  Biso   1.000  C
  H82      1.0000 0.00003  0.18919  0.53691  Biso   1.000  H
  H83      1.0000 0.16917  0.21959  0.05142  Biso   1.000  H
  N14      1.0000 0.09613  0.22511  0.37564  Biso   1.000  N
  N15      1.0000 0.09604  0.22511  0.37564  Biso   1.000  N
  H84      1.0000 0.10267  0.24151  0.19991  Biso   1.000  H
  N16      1.0000 0.23210  0.19883  0.87354  Biso   1.000  N
  H85      1.0000 0.23581  0.12674  0.92608  Biso   1.000  H
  N17      1.0000 0.23208  0.19878  0.87354  Biso   1.000  N
  H86      1.0000 0.23579  0.12669  0.92608  Biso   1.000  H
  H87      1.0000 0.78671  0.02371  0.57573  Biso   1.000  H
  H88      1.0000 0.77252  0.97033  0.67970  Biso   1.000  H
  H89      1.0000 0.77249  0.97028  0.67970  Biso   1.000  H
  C82      1.0000 0.73182  0.95873  0.64928  Biso   1.000  C
  C83      1.0000 0.26541  0.20712  0.75754  Biso   1.000  C
  H90      1.0000 0.19785  0.22751  0.67970  Biso   1.000  H
  H91      1.0000 0.23698  0.21331  0.57573  Biso   1.000  H
  H92      1.0000 0.19776  0.22751  0.67970  Biso   1.000  H
  C84      1.0000 0.22689  0.26823  0.64928  Biso   1.000  C
  H93      1.0000 0.80539  0.09331  0.61923  Biso   1.000  H
  H94      1.0000 0.83459  0.13734  0.74055  Biso   1.000  H
  H95      1.0000 0.86458  0.09523  0.69090  Biso   1.000  H
  H96      1.0000 0.83456  0.13729  0.74055  Biso   1.000  H
  H97      1.0000 0.86456  0.09518  0.69090  Biso   1.000  H
  C85      1.0000 0.79286  0.07441  0.55044  Biso   1.000  C
  C86      1.0000 0.06423  0.30022  0.30266  Biso   1.000  C
  C87      1.0000 0.10137  0.29600  0.53672  Biso   1.000  C
  C88      1.0000 0.06419  0.30022  0.30266  Biso   1.000  C
  H98      1.0000 0.71062  0.96333  0.57508  Biso   1.000  H
  H99      1.0000 0.70765  0.95724  0.72394  Biso   1.000  H
  H100     1.0000 0.73352  0.91901  0.64312  Biso   1.000  H
  C89      1.0000 0.71254  0.01503  0.70714  Biso   1.000  C
  C90      1.0000 0.71244  0.01499  0.70714  Biso   1.000  C
  C91      1.0000 0.27184  0.17513  0.70107  Biso   1.000  C
  C92      1.0000 0.27178  0.17508  0.70107  Biso   1.000  C
  H101     1.0000 0.27794  0.17403  0.74699  Biso   1.000  H
  H102     1.0000 0.30434  0.25000  0.75296  Biso   1.000  H
  C93      1.0000 0.30253  0.28751  0.70714  Biso   1.000  C
  C94      1.0000 0.30245  0.28751  0.70714  Biso   1.000  C
  H103     1.0000 0.25269  0.28943  0.57508  Biso   1.000  H
  H104     1.0000 0.24961  0.29240  0.72394  Biso   1.000  H
  H105     1.0000 0.18552  0.26650  0.64312  Biso   1.000  H
  H106     1.0000 0.83354  0.11523  0.54942  Biso   1.000  H
  H107     1.0000 0.75854  0.08161  0.58003  Biso   1.000  H
  H108     1.0000 0.78288  0.05652  0.46580  Biso   1.000  H
  H109     1.0000 0.04829  0.32880  0.32870  Biso   1.000  H
  H110     1.0000 0.10832  0.32583  0.27224  Biso   1.000  H
  H111     1.0000 0.03692  0.27202  0.23584  Biso   1.000  H
  H112     1.0000 0.10829  0.32578  0.27224  Biso   1.000  H
  H113     1.0000 0.09581  0.26434  0.60009  Biso   1.000  H
  H114     1.0000 0.08505  0.32324  0.56864  Biso   1.000  H
  H115     1.0000 0.14708  0.32262  0.51666  Biso   1.000  H
  H116     1.0000 0.09578  0.26430  0.60009  Biso   1.000  H
  H117     1.0000 0.08498  0.32319  0.56864  Biso   1.000  H
  H118     1.0000 0.71095  0.99873  0.62268  Biso   1.000  H
  H119     1.0000 0.68789  0.97911  0.76398  Biso   1.000  H
  H120     1.0000 0.71089  0.99868  0.62268  Biso   1.000  H
  H121     1.0000 0.69421  0.04333  0.70658  Biso   1.000  H
  H122     1.0000 0.69419  0.04328  0.70658  Biso   1.000  H
  H123     1.0000 0.30272  0.16544  0.74055  Biso   1.000  H
  H124     1.0000 0.28794  0.19461  0.61923  Biso   1.000  H
  H125     1.0000 0.23064  0.13542  0.69090  Biso   1.000  H
  H126     1.0000 0.30270  0.16540  0.74055  Biso   1.000  H
  H127     1.0000 0.28785  0.19461  0.61923  Biso   1.000  H
  H128     1.0000 0.23060  0.13542  0.69090  Biso   1.000  H
  C95      1.0000 0.28153  0.20712  0.55044  Biso   1.000  C
  H129     1.0000 0.29120  0.31211  0.76398  Biso   1.000  H
  H130     1.0000 0.28781  0.28914  0.62268  Biso   1.000  H
  H131     1.0000 0.34916  0.30583  0.70658  Biso   1.000  H
  H132     1.0000 0.29116  0.31211  0.76398  Biso   1.000  H
  H133     1.0000 0.28779  0.28909  0.62268  Biso   1.000  H
  H134     1.0000 0.34909  0.30578  0.70658  Biso   1.000  H
  H135     1.0000 0.28173  0.16650  0.54942  Biso   1.000  H
  H136     1.0000 0.32314  0.24151  0.58003  Biso   1.000  H
  H137     1.0000 0.27364  0.21710  0.46580  Biso   1.000  H
  C96      1.0000 0.73269  0.65608  0.14540  Biso   1.000  C
  C97      1.0000 0.75242  0.60490  0.16500  Biso   1.000  C
  H138     1.0000 0.75189  0.64529  0.15203  Biso   1.000  H
  H139     1.0000 0.68309  0.61901  0.13346  Biso   1.000  H
  H140     1.0000 0.68792  0.63872  0.17060  Biso   1.000  H
  H141     1.0000 0.73739  0.66822  0.05712  Biso   1.000  H
  H142     1.0000 0.76022  0.69402  0.19599  Biso   1.000  H
  C98      1.0000 0.71219  0.55709  0.06981  Biso   1.000  C
  N18      1.0000 0.72718  0.57900  0.28838  Biso   1.000  N
  C99      1.0000 0.81319  0.61829  0.12823  Biso   1.000  C
  H143     1.0000 0.79729  0.61431  0.15800  Biso   1.000  H
  N19      1.0000 0.71841  0.50241  0.07466  Biso   1.000  N
  H144     1.0000 0.66670  0.54462  0.08334  Biso   1.000  H
  C100     1.0000 0.66349  0.57848  0.08707  Biso   1.000  C
  H145     1.0000 0.72482  0.57670  0.98581  Biso   1.000  H
  C101     1.0000 0.76131  0.57291  0.37303  Biso   1.000  C
  H146     1.0000 0.84518  0.64879  0.18675  Biso   1.000  H
  H147     1.0000 0.82221  0.63690  0.04433  Biso   1.000  H
  H148     1.0000 0.81513  0.57862  0.12767  Biso   1.000  H
  C102     1.0000 0.66947  0.45138  0.09323  Biso   1.000  C
  H149     1.0000 0.62663  0.54572  0.13383  Biso   1.000  H
  H150     1.0000 0.64920  0.58471  0.00523  Biso   1.000  H
  H151     1.0000 0.80482  0.58692  0.35306  Biso   1.000  H
  C103     1.0000 0.73879  0.54591  0.49893  Biso   1.000  C
  C104     1.0000 0.67372  0.39051  0.09790  Biso   1.000  C
  H152     1.0000 0.62950  0.44970  0.10434  Biso   1.000  H
  C105     1.0000 0.67462  0.52183  0.52888  Biso   1.000  C
  C106     1.0000 0.77976  0.54121  0.58413  Biso   1.000  C
  C107     1.0000 0.61222  0.33430  0.09286  Biso   1.000  C
  C108     1.0000 0.72207  0.38778  0.09286  Biso   1.000  C
  C109     1.0000 0.65139  0.49306  0.64414  Biso   1.000  C
  H153     1.0000 0.64660  0.52509  0.47056  Biso   1.000  H
  C110     1.0000 0.75653  0.51243  0.69949  Biso   1.000  C
  H154     1.0000 0.82360  0.55761  0.56370  Biso   1.000  H
  C111     1.0000 0.60952  0.28322  0.09790  Biso   1.000  C
  H155     1.0000 0.57440  0.33718  0.08577  Biso   1.000  H
  C112     1.0000 0.71679  0.32629  0.09790  Biso   1.000  C
  H156     1.0000 0.76280  0.42562  0.08577  Biso   1.000  H
  C113     1.0000 0.57879  0.46898  0.67420  Biso   1.000  C
  C114     1.0000 0.69232  0.48836  0.72944  Biso   1.000  C
  C115     1.0000 0.80023  0.51152  0.79067  Biso   1.000  C
  C116     1.0000 0.54859  0.21809  0.09323  Biso   1.000  C
  C117     1.0000 0.66572  0.27790  0.09286  Biso   1.000  C
  C118     1.0000 0.78191  0.33051  0.09323  Biso   1.000  C
  N20      1.0000 0.56199  0.45358  0.78983  Biso   1.000  N
  H157     1.0000 0.54939  0.46601  0.61185  Biso   1.000  H
  H158     1.0000 0.67638  0.46869  0.80831  Biso   1.000  H
  N21      1.0000 0.85842  0.53752  0.77284  Biso   1.000  N
  H159     1.0000 0.78339  0.48999  0.86757  Biso   1.000  H
  N22      1.0000 0.49763  0.21602  0.07466  Biso   1.000  N
  H160     1.0000 0.55030  0.17981  0.10434  Biso   1.000  H
  H161     1.0000 0.66283  0.23722  0.08577  Biso   1.000  H
  N23      1.0000 0.78399  0.28159  0.07466  Biso   1.000  N
  H162     1.0000 0.82019  0.37051  0.10434  Biso   1.000  H
  C119     1.0000 0.49561  0.43262  0.81969  Biso   1.000  C
  C120     1.0000 0.89489  0.53239  0.87056  Biso   1.000  C
  C121     1.0000 0.44291  0.15511  0.06981  Biso   1.000  C
  C122     1.0000 0.84493  0.28782  0.06981  Biso   1.000  C
  C123     1.0000 0.46761  0.36250  0.87056  Biso   1.000  C
  C124     1.0000 0.44618  0.42399  0.71059  Biso   1.000  C
  C125     1.0000 0.50601  0.47502  0.94410  Biso   1.000  C
  H163     1.0000 0.47200  0.43310  0.74438  Biso   1.000  H
  H164     1.0000 0.49277  0.46068  0.88390  Biso   1.000  H
  C126     1.0000 0.93703  0.50442  0.81969  Biso   1.000  C
  H165     1.0000 0.86600  0.50409  0.93691  Biso   1.000  H
  H166     1.0000 0.92309  0.57531  0.90723  Biso   1.000  H
  C127     1.0000 0.88771  0.50390  0.98105  Biso   1.000  C
  C128     1.0000 0.39511  0.14749  0.16500  Biso   1.000  C
  H167     1.0000 0.45541  0.12211  0.08334  Biso   1.000  H
  C129     1.0000 0.42148  0.08499  0.08707  Biso   1.000  C
  H168     1.0000 0.42330  0.14811  0.98581  Biso   1.000  H
  H169     1.0000 0.87788  0.33329  0.08334  Biso   1.000  H
  C130     1.0000 0.85247  0.24758  0.16500  Biso   1.000  C
  C131     1.0000 0.91500  0.33651  0.08707  Biso   1.000  C
  H170     1.0000 0.85191  0.27521  0.98581  Biso   1.000  H
  N24      1.0000 0.46252  0.32092  0.77284  Biso   1.000  N
  H171     1.0000 0.49587  0.36188  0.93691  Biso   1.000  H
  H172     1.0000 0.42469  0.34778  0.90723  Biso   1.000  H
  C132     1.0000 0.49611  0.38380  0.98105  Biso   1.000  C
  H173     1.0000 0.45919  0.46572  0.67261  Biso   1.000  H
  H174     1.0000 0.40301  0.40610  0.74568  Biso   1.000  H
  H175     1.0000 0.44619  0.39468  0.64694  Biso   1.000  H
  H176     1.0000 0.46441  0.46111  0.98385  Biso   1.000  H
  H177     1.0000 0.52578  0.52039  0.92123  Biso   1.000  H
  H178     1.0000 0.53400  0.46912  0.00233  Biso   1.000  H
  N25      1.0000 0.89160  0.43799  0.78983  Biso   1.000  N
  C133     1.0000 0.97778  0.55378  0.71059  Biso   1.000  C
  C134     1.0000 0.96900  0.49402  0.94410  Biso   1.000  C
  H179     1.0000 0.96112  0.52802  0.74438  Biso   1.000  H
  H180     1.0000 0.96791  0.50720  0.88390  Biso   1.000  H
  H181     1.0000 0.86793  0.45752  0.96911  Biso   1.000  H
  H182     1.0000 0.86020  0.51301  0.03453  Biso   1.000  H
  H183     1.0000 0.92981  0.52039  0.02072  Biso   1.000  H
  C135     1.0000 0.38170  0.19492  0.12823  Biso   1.000  C
  N26      1.0000 0.42095  0.14816  0.28838  Biso   1.000  N
  C136     1.0000 0.34388  0.07660  0.14540  Biso   1.000  C
  H184     1.0000 0.38569  0.18298  0.15800  Biso   1.000  H
  H185     1.0000 0.35470  0.10662  0.15203  Biso   1.000  H
  H186     1.0000 0.38099  0.06408  0.13346  Biso   1.000  H
  H187     1.0000 0.45429  0.08091  0.13383  Biso   1.000  H
  H188     1.0000 0.41531  0.06451  0.00523  Biso   1.000  H
  N27      1.0000 0.85184  0.27281  0.28838  Biso   1.000  N
  C137     1.0000 0.92339  0.26730  0.14540  Biso   1.000  C
  C138     1.0000 0.80510  0.18681  0.12823  Biso   1.000  C
  H189     1.0000 0.81698  0.20269  0.15800  Biso   1.000  H
  H190     1.0000 0.89340  0.24811  0.15203  Biso   1.000  H
  H191     1.0000 0.91911  0.37339  0.13383  Biso   1.000  H
  H192     1.0000 0.93548  0.35080  0.00523  Biso   1.000  H
  H193     1.0000 0.93589  0.31689  0.13346  Biso   1.000  H
  C139     1.0000 0.48848  0.28869  0.79067  Biso   1.000  C
  H194     1.0000 0.54249  0.41042  0.96911  Biso   1.000  H
  H195     1.0000 0.48700  0.34720  0.03453  Biso   1.000  H
  H196     1.0000 0.47960  0.40941  0.02072  Biso   1.000  H
  C140     1.0000 0.89019  0.42121  0.67420  Biso   1.000  C
  H197     1.0000 0.94850  0.55378  0.64694  Biso   1.000  H
  H198     1.0000 0.00651  0.54078  0.67261  Biso   1.000  H
  H199     1.0000 0.00309  0.59699  0.74568  Biso   1.000  H
  H200     1.0000 0.99669  0.53560  0.98385  Biso   1.000  H
  H201     1.0000 0.99461  0.47421  0.92123  Biso   1.000  H
  H202     1.0000 0.93510  0.46601  0.00233  Biso   1.000  H
  H203     1.0000 0.35120  0.19641  0.18675  Biso   1.000  H
  H204     1.0000 0.36309  0.18528  0.04433  Biso   1.000  H
  H205     1.0000 0.42139  0.23650  0.12767  Biso   1.000  H
  C141     1.0000 0.42712  0.18840  0.37303  Biso   1.000  C
  H206     1.0000 0.36130  0.04921  0.17060  Biso   1.000  H
  H207     1.0000 0.33180  0.06921  0.05712  Biso   1.000  H
  H208     1.0000 0.30599  0.06619  0.19599  Biso   1.000  H
  C142     1.0000 0.81161  0.23871  0.37303  Biso   1.000  C
  H209     1.0000 0.95081  0.31209  0.17060  Biso   1.000  H
  H210     1.0000 0.93080  0.26260  0.05712  Biso   1.000  H
  H211     1.0000 0.93382  0.23981  0.19599  Biso   1.000  H
  H212     1.0000 0.80360  0.15482  0.18675  Biso   1.000  H
  H213     1.0000 0.81471  0.17780  0.04433  Biso   1.000  H
  H214     1.0000 0.76352  0.18490  0.12767  Biso   1.000  H
  C143     1.0000 0.48759  0.24413  0.69949  Biso   1.000  C
  H215     1.0000 0.50998  0.29339  0.86757  Biso   1.000  H
  C144     1.0000 0.84169  0.34864  0.64414  Biso   1.000  C
  H216     1.0000 0.91660  0.45061  0.61185  Biso   1.000  H
  H217     1.0000 0.41308  0.21789  0.35306  Biso   1.000  H
  C145     1.0000 0.45409  0.19291  0.49893  Biso   1.000  C
  H218     1.0000 0.78209  0.19521  0.35306  Biso   1.000  H
  C146     1.0000 0.80711  0.26120  0.49893  Biso   1.000  C
  C147     1.0000 0.45881  0.23857  0.58413  Biso   1.000  C
  C148     1.0000 0.51165  0.20394  0.72944  Biso   1.000  C
  C149     1.0000 0.79604  0.30768  0.72944  Biso   1.000  C
  C150     1.0000 0.84722  0.32538  0.52888  Biso   1.000  C
  C151     1.0000 0.47813  0.15276  0.52888  Biso   1.000  C
  C152     1.0000 0.76142  0.22024  0.58413  Biso   1.000  C
  H219     1.0000 0.44241  0.26600  0.56370  Biso   1.000  H
  C153     1.0000 0.50695  0.15832  0.64414  Biso   1.000  C
  H220     1.0000 0.53129  0.20768  0.80831  Biso   1.000  H
  C154     1.0000 0.75587  0.24346  0.69949  Biso   1.000  C
  H221     1.0000 0.79229  0.32360  0.80831  Biso   1.000  H
  H222     1.0000 0.87850  0.35339  0.47056  Biso   1.000  H
  H223     1.0000 0.47491  0.12149  0.47056  Biso   1.000  H
  H224     1.0000 0.73402  0.17641  0.56370  Biso   1.000  H
  C155     1.0000 0.53099  0.10979  0.67420  Biso   1.000  C
  C156     1.0000 0.71129  0.19981  0.79067  Biso   1.000  C
  N28      1.0000 0.54641  0.10840  0.78983  Biso   1.000  N
  H225     1.0000 0.53400  0.08341  0.61185  Biso   1.000  H
  N29      1.0000 0.67910  0.14159  0.77284  Biso   1.000  N
  H226     1.0000 0.70660  0.21660  0.86757  Biso   1.000  H
  C157     1.0000 0.56742  0.06302  0.81969  Biso   1.000  C
  C158     1.0000 0.63751  0.10509  0.87056  Biso   1.000  C
  C159     1.0000 0.57600  0.02221  0.71059  Biso   1.000  C
  C160     1.0000 0.52498  0.03098  0.94410  Biso   1.000  C
  H227     1.0000 0.56690  0.03890  0.74438  Biso   1.000  H
  H228     1.0000 0.53928  0.03209  0.88390  Biso   1.000  H
  H229     1.0000 0.63809  0.13401  0.93691  Biso   1.000  H
  H230     1.0000 0.65219  0.07688  0.90723  Biso   1.000  H
  C161     1.0000 0.61618  0.11228  0.98105  Biso   1.000  C
  H231     1.0000 0.60532  0.05151  0.64694  Biso   1.000  H
  H232     1.0000 0.53435  0.99348  0.67261  Biso   1.000  H
  H233     1.0000 0.59387  0.99688  0.74568  Biso   1.000  H
  H234     1.0000 0.53889  0.00331  0.98385  Biso   1.000  H
  H235     1.0000 0.47959  0.00542  0.92123  Biso   1.000  H
  H236     1.0000 0.53089  0.06489  0.00233  Biso   1.000  H
  H237     1.0000 0.58958  0.13209  0.96911  Biso   1.000  H
  H238     1.0000 0.65279  0.13981  0.03453  Biso   1.000  H
  H239     1.0000 0.59062  0.07022  0.02072  Biso   1.000  H
  N30      1.0000 0.53409  0.67349  0.36519  Biso   1.000  N
  C162     1.0000 0.52913  0.63042  0.26822  Biso   1.000  C
  C163     1.0000 0.50761  0.71009  0.34923  Biso   1.000  C
  C164     1.0000 0.50328  0.56668  0.31666  Biso   1.000  C
  H240     1.0000 0.57200  0.64481  0.23192  Biso   1.000  H
  H241     1.0000 0.50093  0.63052  0.20103  Biso   1.000  H
  H242     1.0000 0.48412  0.70582  0.27513  Biso   1.000  H
  C165     1.0000 0.51392  0.75594  0.44256  Biso   1.000  C
  N31      1.0000 0.43292  0.54102  0.35399  Biso   1.000  N
  C166     1.0000 0.50267  0.52668  0.21549  Biso   1.000  C
  C167     1.0000 0.54022  0.56040  0.41269  Biso   1.000  C
  C168     1.0000 0.49190  0.79738  0.41008  Biso   1.000  C
  C169     1.0000 0.53856  0.75886  0.56127  Biso   1.000  C
  C170     1.0000 0.41107  0.52649  0.45628  Biso   1.000  C
  H243     1.0000 0.48339  0.48222  0.24442  Biso   1.000  H
  H244     1.0000 0.54669  0.54169  0.18768  Biso   1.000  H
  H245     1.0000 0.47749  0.52898  0.14596  Biso   1.000  H
  H246     1.0000 0.51871  0.51589  0.44209  Biso   1.000  H
  H247     1.0000 0.54470  0.58879  0.48222  Biso   1.000  H
  H248     1.0000 0.58271  0.57210  0.38040  Biso   1.000  H
  C171     1.0000 0.49451  0.84189  0.49622  Biso   1.000  C
  H249     1.0000 0.47510  0.79551  0.32888  Biso   1.000  H
  H250     1.0000 0.55363  0.73052  0.58357  Biso   1.000  H
  C172     1.0000 0.54116  0.80328  0.64741  Biso   1.000  C
  C173     1.0000 0.34736  0.50548  0.49622  Biso   1.000  C
  H251     1.0000 0.44012  0.52941  0.51955  Biso   1.000  H
  C174     1.0000 0.51910  0.84481  0.61475  Biso   1.000  C
  C175     1.0000 0.47351  0.88462  0.45628  Biso   1.000  C
  C176     1.0000 0.57468  0.80568  0.76780  Biso   1.000  C
  C177     1.0000 0.30552  0.50812  0.41008  Biso   1.000  C
  C178     1.0000 0.32571  0.48087  0.61475  Biso   1.000  C
  H252     1.0000 0.52089  0.87522  0.67364  Biso   1.000  H
  N32      1.0000 0.45900  0.89191  0.35399  Biso   1.000  N
  H253     1.0000 0.47060  0.91071  0.51955  Biso   1.000  H
  N33      1.0000 0.58147  0.84918  0.83994  Biso   1.000  N
  H254     1.0000 0.58939  0.77671  0.78675  Biso   1.000  H
  H255     1.0000 0.32040  0.52490  0.32888  Biso   1.000  H
  C179     1.0000 0.24199  0.48605  0.44256  Biso   1.000  C
  C180     1.0000 0.26212  0.45886  0.64741  Biso   1.000  C
  H256     1.0000 0.35432  0.47910  0.67364  Biso   1.000  H
  C181     1.0000 0.43329  0.93661  0.31666  Biso   1.000  C
  C182     1.0000 0.61779  0.85119  0.96034  Biso   1.000  C
  C183     1.0000 0.22030  0.46145  0.56127  Biso   1.000  C
  C184     1.0000 0.20250  0.49238  0.34923  Biso   1.000  C
  C185     1.0000 0.23100  0.42528  0.76780  Biso   1.000  C
  C186     1.0000 0.36961  0.89872  0.26822  Biso   1.000  C
  C187     1.0000 0.47329  0.97599  0.21549  Biso   1.000  C
  C188     1.0000 0.43959  0.97978  0.41269  Biso   1.000  C
  H257     1.0000 0.65975  0.89134  0.96547  Biso   1.000  H
  H258     1.0000 0.62484  0.81412  0.96500  Biso   1.000  H
  C189     1.0000 0.57223  0.84822  0.06430  Biso   1.000  C
  C190     1.0000 0.61752  0.79632  0.00476  Biso   1.000  C
  C191     1.0000 0.65860  0.92218  0.00112  Biso   1.000  C
  H259     1.0000 0.17688  0.44639  0.58357  Biso   1.000  H
  N34      1.0000 0.13941  0.46591  0.36519  Biso   1.000  N
  H260     1.0000 0.22168  0.51589  0.27513  Biso   1.000  H
  N35      1.0000 0.26770  0.41852  0.83994  Biso   1.000  N
  H261     1.0000 0.18732  0.41061  0.78675  Biso   1.000  H
  N36      1.0000 0.32650  0.86059  0.36519  Biso   1.000  N
  H262     1.0000 0.35520  0.92721  0.23192  Biso   1.000  H
  H263     1.0000 0.36948  0.87038  0.20103  Biso   1.000  H
  H264     1.0000 0.47101  0.94851  0.14596  Biso   1.000  H
  H265     1.0000 0.51776  0.00122  0.24442  Biso   1.000  H
  H266     1.0000 0.45827  0.00501  0.18768  Biso   1.000  H
  H267     1.0000 0.41120  0.95590  0.48222  Biso   1.000  H
  H268     1.0000 0.48412  0.00280  0.44209  Biso   1.000  H
  H269     1.0000 0.42793  0.01062  0.38040  Biso   1.000  H
  N37      1.0000 0.50831  0.78592  0.06253  Biso   1.000  N
  H270     1.0000 0.59302  0.85282  0.14624  Biso   1.000  H
  H271     1.0000 0.56443  0.88462  0.05432  Biso   1.000  H
  C192     1.0000 0.62203  0.84822  0.16416  Biso   1.000  C
  C193     1.0000 0.57483  0.91431  0.06645  Biso   1.000  C
  H272     1.0000 0.64408  0.78640  0.95035  Biso   1.000  H
  H273     1.0000 0.57350  0.76021  0.00523  Biso   1.000  H
  H274     1.0000 0.63491  0.80419  0.08978  Biso   1.000  H
  H275     1.0000 0.64808  0.94908  0.94867  Biso   1.000  H
  H276     1.0000 0.70431  0.93618  0.99197  Biso   1.000  H
  H277     1.0000 0.64942  0.92649  0.08857  Biso   1.000  H
  C194     1.0000 0.10128  0.47090  0.26822  Biso   1.000  C
  C195     1.0000 0.23339  0.38221  0.96034  Biso   1.000  C
  C196     1.0000 0.28989  0.79752  0.34923  Biso   1.000  C
  C197     1.0000 0.45670  0.78721  0.04769  Biso   1.000  C
  H278     1.0000 0.60722  0.84942  0.24872  Biso   1.000  H
  H279     1.0000 0.66445  0.88611  0.15072  Biso   1.000  H
  H280     1.0000 0.62493  0.80932  0.15380  Biso   1.000  H
  H281     1.0000 0.55903  0.92093  0.98665  Biso   1.000  H
  H282     1.0000 0.54784  0.91474  0.13448  Biso   1.000  H
  H283     1.0000 0.61914  0.94861  0.07942  Biso   1.000  H
  C198     1.0000 0.06339  0.49670  0.31666  Biso   1.000  C
  H284     1.0000 0.07283  0.42802  0.23192  Biso   1.000  H
  H285     1.0000 0.12959  0.49910  0.20103  Biso   1.000  H
  H286     1.0000 0.23158  0.34029  0.96547  Biso   1.000  H
  H287     1.0000 0.18931  0.37521  0.96500  Biso   1.000  H
  C199     1.0000 0.27599  0.42778  0.06430  Biso   1.000  C
  C200     1.0000 0.17879  0.38250  0.00476  Biso   1.000  C
  C201     1.0000 0.26362  0.34140  0.00112  Biso   1.000  C
  C202     1.0000 0.24405  0.75800  0.44256  Biso   1.000  C
  H288     1.0000 0.29419  0.77829  0.27513  Biso   1.000  H
  C203     1.0000 0.39227  0.72889  0.04218  Biso   1.000  C
  H289     1.0000 0.45941  0.82769  0.03948  Biso   1.000  H
  N38      1.0000 0.10810  0.56711  0.35399  Biso   1.000  N
  C204     1.0000 0.02401  0.49728  0.21549  Biso   1.000  C
  C205     1.0000 0.02019  0.45982  0.41269  Biso   1.000  C
  N39      1.0000 0.27759  0.49171  0.06253  Biso   1.000  N
  H290     1.0000 0.25979  0.40701  0.14624  Biso   1.000  H
  H291     1.0000 0.32019  0.43560  0.05432  Biso   1.000  H
  C206     1.0000 0.22621  0.37799  0.16416  Biso   1.000  C
  C207     1.0000 0.33949  0.42519  0.06645  Biso   1.000  C
  H292     1.0000 0.14230  0.35588  0.95035  Biso   1.000  H
  H293     1.0000 0.18670  0.42648  0.00523  Biso   1.000  H
  H294     1.0000 0.16930  0.36509  0.08978  Biso   1.000  H
  H295     1.0000 0.30102  0.35190  0.94867  Biso   1.000  H
  H296     1.0000 0.23192  0.29569  0.99197  Biso   1.000  H
  H297     1.0000 0.27711  0.35061  0.08857  Biso   1.000  H
  C208     1.0000 0.20262  0.69450  0.41008  Biso   1.000  C
  C209     1.0000 0.24116  0.77973  0.56127  Biso   1.000  C
  C210     1.0000 0.38918  0.66438  0.04097  Biso   1.000  C
  C211     1.0000 0.33561  0.72481  0.04097  Biso   1.000  C
  C212     1.0000 0.11538  0.58889  0.45628  Biso   1.000  C
  H298     1.0000 0.05149  0.52250  0.14596  Biso   1.000  H
  H299     1.0000 0.99882  0.51661  0.24442  Biso   1.000  H
  H300     1.0000 0.99500  0.45329  0.18768  Biso   1.000  H
  H301     1.0000 0.04410  0.45531  0.48222  Biso   1.000  H
  H302     1.0000 0.99720  0.48131  0.44209  Biso   1.000  H
  H303     1.0000 0.98943  0.41732  0.38040  Biso   1.000  H
  C213     1.0000 0.33052  0.54332  0.04769  Biso   1.000  C
  H304     1.0000 0.24222  0.39281  0.24872  Biso   1.000  H
  H305     1.0000 0.22171  0.33559  0.15072  Biso   1.000  H
  H306     1.0000 0.18440  0.37512  0.15380  Biso   1.000  H
  H307     1.0000 0.36190  0.44102  0.98665  Biso   1.000  H
  H308     1.0000 0.36691  0.45219  0.13448  Biso   1.000  H
  H309     1.0000 0.32953  0.38092  0.07942  Biso   1.000  H
  C214     1.0000 0.15813  0.65263  0.49622  Biso   1.000  C
  H310     1.0000 0.20451  0.67958  0.32888  Biso   1.000  H
  C215     1.0000 0.19674  0.73791  0.64741  Biso   1.000  C
  H311     1.0000 0.26949  0.82309  0.58357  Biso   1.000  H
  C216     1.0000 0.33657  0.60769  0.04218  Biso   1.000  C
  H312     1.0000 0.42890  0.66491  0.03929  Biso   1.000  H
  C217     1.0000 0.27111  0.66342  0.04218  Biso   1.000  C
  H313     1.0000 0.33510  0.76400  0.03929  Biso   1.000  H
  H314     1.0000 0.08930  0.55992  0.51955  Biso   1.000  H
  H315     1.0000 0.36828  0.54059  0.03948  Biso   1.000  H
  C218     1.0000 0.15518  0.67431  0.61475  Biso   1.000  C
  C219     1.0000 0.19430  0.76898  0.76780  Biso   1.000  C
  C220     1.0000 0.27520  0.61080  0.04097  Biso   1.000  C
  C221     1.0000 0.21280  0.66951  0.04769  Biso   1.000  C
  H316     1.0000 0.12481  0.64572  0.67364  Biso   1.000  H
  N40      1.0000 0.15078  0.73229  0.83994  Biso   1.000  N
  H317     1.0000 0.22329  0.81268  0.78675  Biso   1.000  H
  H318     1.0000 0.23599  0.57109  0.03929  Biso   1.000  H
  N41      1.0000 0.21412  0.72241  0.06253  Biso   1.000  N
  H319     1.0000 0.17231  0.63172  0.03948  Biso   1.000  H
  C222     1.0000 0.14878  0.76659  0.96034  Biso   1.000  C
  C223     1.0000 0.15178  0.72400  0.06430  Biso   1.000  C
  H320     1.0000 0.10869  0.76841  0.96547  Biso   1.000  H
  H321     1.0000 0.18592  0.81071  0.96500  Biso   1.000  H
  C224     1.0000 0.20371  0.82122  0.00476  Biso   1.000  C
  C225     1.0000 0.07782  0.73642  0.00112  Biso   1.000  C
  H322     1.0000 0.14722  0.74021  0.14624  Biso   1.000  H
  H323     1.0000 0.11540  0.67982  0.05432  Biso   1.000  H
  C226     1.0000 0.15179  0.77378  0.16416  Biso   1.000  C
  C227     1.0000 0.08568  0.66049  0.06645  Biso   1.000  C
  H324     1.0000 0.21361  0.85772  0.95035  Biso   1.000  H
  H325     1.0000 0.23980  0.81330  0.00523  Biso   1.000  H
  H326     1.0000 0.19579  0.83071  0.08978  Biso   1.000  H
  H327     1.0000 0.05090  0.69901  0.94867  Biso   1.000  H
  H328     1.0000 0.06381  0.76812  0.99197  Biso   1.000  H
  H329     1.0000 0.07351  0.72289  0.08857  Biso   1.000  H
  H330     1.0000 0.15062  0.75781  0.24872  Biso   1.000  H
  H331     1.0000 0.11388  0.77829  0.15072  Biso   1.000  H
  H332     1.0000 0.19069  0.81560  0.15380  Biso   1.000  H
  H333     1.0000 0.07909  0.63809  0.98665  Biso   1.000  H
  H334     1.0000 0.08532  0.63311  0.13448  Biso   1.000  H
  H335     1.0000 0.05140  0.67052  0.07942  Biso   1.000  H
  Ne1      1.0000 0.66667  0.33333  0.48721  Biso   1.000  Ne
  He1      1.0000 0.66666  0.33333  0.74575  Biso   1.000  He
  He2      1.0000 0.57627  0.36629  0.39831  Biso   1.000  He
  He3      1.0000 0.78921  0.42314  0.39892  Biso   1.000  He
  He4      1.0000 0.63297  0.20726  0.39632  Biso   1.000  He
  Ar1      1.0000 0.66603  0.33198  0.48420  Biso   1.000  Ar
  Ne2      1.0000 0.33333  0.66667  0.69730  Biso   1.000  Ne
  He5      1.0000 0.42115  0.63392  0.73901  Biso   1.000  He
  He6      1.0000 0.20899  0.57610  0.74178  Biso   1.000  He
  He7      1.0000 0.36671  0.78960  0.74075  Biso   1.000  He
  He8      1.0000 0.33334  0.66666  0.39352  Biso   1.000  He
  Ar2      1.0000 0.33334  0.66666  0.65251  Biso   1.000  Ar
  Ne3      1.0000 0.00086  0.00479  0.05950  Biso   1.000  Ne
  He9      1.0000 0.00002  0.00002  0.32074  Biso   1.000  He
  He10     1.0000 0.88216  0.90143  0.97402  Biso   1.000  He
  He11     1.0000 0.01838  0.11131  0.97854  Biso   1.000  He
  He12     1.0000 0.09581  0.98117  0.97624  Biso   1.000  He
  Ar3      1.0000 0.99994  0.00000  0.05367  Biso   1.000  Ar
