data_image0
_cell_length_a       22.049
_cell_length_b       11.411
_cell_length_c       20.78
_cell_angle_alpha    90
_cell_angle_beta     117.6
_cell_angle_gamma    90

_symmetry_space_group_name_H-M    "P 1"
_symmetry_int_tables_number       1

loop_
  _symmetry_equiv_pos_as_xyz
  'x, y, z'

loop_
  _atom_site_label
  _atom_site_occupancy
  _atom_site_fract_x
  _atom_site_fract_y
  _atom_site_fract_z
  _atom_site_thermal_displace_type
  _atom_site_B_iso_or_equiv
  _atom_site_type_symbol
  C1       1.0000 0.55538  0.40470  0.45511  Biso   1.000  C
  C2       1.0000 0.55109  0.39996  0.38577  Biso   1.000  C
  C3       1.0000 0.59260  0.32504  0.50952  Biso   1.000  C
  H1       1.0000 0.53212  0.46411  0.46510  Biso   1.000  H
  C4       1.0000 0.50498  0.48891  0.32962  Biso   1.000  C
  C5       1.0000 0.58780  0.31321  0.37170  Biso   1.000  C
  C6       1.0000 0.62726  0.23504  0.49415  Biso   1.000  C
  O1       1.0000 0.58581  0.33731  0.57208  Biso   1.000  O
  H2       1.0000 0.46570  0.50434  0.33771  Biso   1.000  H
  H3       1.0000 0.48810  0.45456  0.28172  Biso   1.000  H
  C7       1.0000 0.53941  0.60450  0.33087  Biso   1.000  C
  C8       1.0000 0.58819  0.29936  0.29926  Biso   1.000  C
  C9       1.0000 0.62504  0.23206  0.42644  Biso   1.000  C
  O2       1.0000 0.66079  0.15327  0.54726  Biso   1.000  O
  C10      1.0000 0.63677  0.29393  0.64121  Biso   1.000  C
  C11      1.0000 0.54055  0.69047  0.37920  Biso   1.000  C
  C12      1.0000 0.56970  0.62869  0.28672  Biso   1.000  C
  H4       1.0000 0.59203  0.21672  0.29101  Biso   1.000  H
  H5       1.0000 0.54459  0.32653  0.26120  Biso   1.000  H
  C13      1.0000 0.64528  0.36482  0.29247  Biso   1.000  C
  H6       1.0000 0.64921  0.17369  0.41688  Biso   1.000  H
  C14      1.0000 0.69741  0.06362  0.53298  Biso   1.000  C
  H7       1.0000 0.62174  0.30882  0.67753  Biso   1.000  H
  H8       1.0000 0.64090  0.20980  0.63789  Biso   1.000  H
  C15      1.0000 0.70571  0.34879  0.66553  Biso   1.000  C
  H9       1.0000 0.51970  0.67496  0.40830  Biso   1.000  H
  C16      1.0000 0.57153  0.79739  0.38511  Biso   1.000  C
  C17      1.0000 0.60182  0.73771  0.29340  Biso   1.000  C
  C18      1.0000 0.56992  0.54447  0.23030  Biso   1.000  C
  C19      1.0000 0.63599  0.47349  0.25821  Biso   1.000  C
  C20      1.0000 0.70931  0.31040  0.31957  Biso   1.000  C
  H10      1.0000 0.73201  0.09806  0.52331  Biso   1.000  H
  H11      1.0000 0.71849  0.01288  0.57441  Biso   1.000  H
  H12      1.0000 0.66641  0.01902  0.49149  Biso   1.000  H
  H13      1.0000 0.71771  0.34887  0.62611  Biso   1.000  H
  H14      1.0000 0.74032  0.30506  0.70593  Biso   1.000  H
  O3       1.0000 0.70194  0.46665  0.68742  Biso   1.000  O
  C21      1.0000 0.60395  0.82105  0.34211  Biso   1.000  C
  O4       1.0000 0.57384  0.88616  0.43040  Biso   1.000  O
  H15      1.0000 0.62220  0.75383  0.26402  Biso   1.000  H
  H16      1.0000 0.53147  0.49111  0.21558  Biso   1.000  H
  H17      1.0000 0.56378  0.58847  0.18778  Biso   1.000  H
  C22      1.0000 0.69091  0.52230  0.25104  Biso   1.000  C
  C23      1.0000 0.76342  0.35957  0.31251  Biso   1.000  C
  H18      1.0000 0.71581  0.23872  0.34308  Biso   1.000  H
  C24      1.0000 0.75216  0.54202  0.69089  Biso   1.000  C
  O5       1.0000 0.63201  0.93112  0.35080  Biso   1.000  O
  C25      1.0000 0.51838  0.89668  0.44631  Biso   1.000  C
  H19      1.0000 0.68489  0.59416  0.22769  Biso   1.000  H
  C26      1.0000 0.75343  0.46736  0.27727  Biso   1.000  C
  O6       1.0000 0.82683  0.30891  0.33423  Biso   1.000  O
  C27      1.0000 0.73359  0.65893  0.67297  Biso   1.000  C
  C28      1.0000 0.81923  0.50863  0.71289  Biso   1.000  C
  C29      1.0000 0.67695  0.95215  0.31973  Biso   1.000  C
  H20      1.0000 0.48243  0.84401  0.41590  Biso   1.000  H
  H21      1.0000 0.53333  0.87722  0.49643  Biso   1.000  H
  H22      1.0000 0.50152  0.97555  0.43741  Biso   1.000  H
  O7       1.0000 0.80536  0.51573  0.26565  Biso   1.000  O
  C30      1.0000 0.84301  0.20401  0.37670  Biso   1.000  C
  C31      1.0000 0.78091  0.73613  0.67134  Biso   1.000  C
  O8       1.0000 0.66955  0.69819  0.65999  Biso   1.000  O
  H23      1.0000 0.83231  0.43186  0.72820  Biso   1.000  H
  C32      1.0000 0.86768  0.58698  0.71261  Biso   1.000  C
  H24      1.0000 0.65528  0.92463  0.26988  Biso   1.000  H
  C33      1.0000 0.74472  0.89291  0.36057  Biso   1.000  C
  H25      1.0000 0.68422  0.03593  0.31903  Biso   1.000  H
  C34      1.0000 0.85638  0.57366  0.32837  Biso   1.000  C
  H26      1.0000 0.80573  0.14872  0.35302  Biso   1.000  H
  H27      1.0000 0.88372  0.16922  0.37789  Biso   1.000  H
  C35      1.0000 0.85508  0.22233  0.45294  Biso   1.000  C
  C36      1.0000 0.84747  0.70125  0.68823  Biso   1.000  C
  H28      1.0000 0.76824  0.81369  0.65864  Biso   1.000  H
  C37      1.0000 0.61789  0.67566  0.58831  Biso   1.000  C
  C38      1.0000 0.94007  0.54193  0.73672  Biso   1.000  C
  H29      1.0000 0.77139  0.90150  0.33461  Biso   1.000  H
  H30      1.0000 0.73821  0.81001  0.36551  Biso   1.000  H
  O9       1.0000 0.78029  0.94672  0.43165  Biso   1.000  O
  H31      1.0000 0.87400  0.52064  0.36882  Biso   1.000  H
  H32      1.0000 0.89303  0.59916  0.31892  Biso   1.000  H
  H33      1.0000 0.83652  0.64043  0.33961  Biso   1.000  H
  H34      1.0000 0.86101  0.14749  0.47732  Biso   1.000  H
  H35      1.0000 0.81619  0.26203  0.45299  Biso   1.000  H
  O10      1.0000 0.91613  0.29279  0.49014  Biso   1.000  O
  C39      1.0000 0.89395  0.78968  0.67857  Biso   1.000  C
  H36      1.0000 0.61432  0.59276  0.57952  Biso   1.000  H
  H37      1.0000 0.57490  0.70528  0.58261  Biso   1.000  H
  H38      1.0000 0.62953  0.71387  0.55432  Biso   1.000  H
  H39      1.0000 0.95322  0.48979  0.77794  Biso   1.000  H
  H40      1.0000 0.97184  0.60731  0.75182  Biso   1.000  H
  C40      1.0000 0.94382  0.47708  0.67520  Biso   1.000  C
  C41      1.0000 0.83393  0.88055  0.48199  Biso   1.000  C
  C42      1.0000 0.92484  0.34949  0.55258  Biso   1.000  C
  C43      1.0000 0.88920  0.79388  0.60298  Biso   1.000  C
  H41      1.0000 0.88331  0.86688  0.69002  Biso   1.000  H
  H42      1.0000 0.94092  0.77206  0.71343  Biso   1.000  H
  C44      1.0000 0.92242  0.36062  0.66608  Biso   1.000  C
  C45      1.0000 0.96069  0.52896  0.62502  Biso   1.000  C
  C46      1.0000 0.88813  0.84462  0.47037  Biso   1.000  C
  C47      1.0000 0.83614  0.85716  0.54835  Biso   1.000  C
  C48      1.0000 0.91390  0.29533  0.60667  Biso   1.000  C
  C49      1.0000 0.94959  0.46306  0.56344  Biso   1.000  C
  C50      1.0000 0.93782  0.74227  0.58603  Biso   1.000  C
  H43      1.0000 0.91350  0.32574  0.70132  Biso   1.000  H
  C51      1.0000 0.98998  0.65218  0.63415  Biso   1.000  C
  C52      1.0000 0.93743  0.77066  0.52055  Biso   1.000  C
  O11      1.0000 0.88944  0.88572  0.40906  Biso   1.000  O
  H44      1.0000 0.80093  0.88476  0.55693  Biso   1.000  H
  O12      1.0000 0.89642  0.17851  0.59863  Biso   1.000  O
  H45      1.0000 0.95924  0.49715  0.52864  Biso   1.000  H
  H46      1.0000 0.02802  0.65130  0.62291  Biso   1.000  H
  H47      1.0000 0.00754  0.67566  0.68454  Biso   1.000  H
  H48      1.0000 0.97103  0.73964  0.51034  Biso   1.000  H
  C53      1.0000 0.95198  0.87039  0.40542  Biso   1.000  C
  C54      1.0000 0.87183  0.13154  0.64555  Biso   1.000  C
  H49      1.0000 0.95799  0.78889  0.39831  Biso   1.000  H
  H50      1.0000 0.95042  0.91499  0.36551  Biso   1.000  H
  H51      1.0000 0.98949  0.89685  0.44990  Biso   1.000  H
  H52      1.0000 0.83472  0.17877  0.64283  Biso   1.000  H
  H53      1.0000 0.85608  0.05293  0.63089  Biso   1.000  H
  H54      1.0000 0.90813  0.13119  0.69453  Biso   1.000  H
  C55      1.0000 0.44465  0.59530  0.54493  Biso   1.000  C
  C56      1.0000 0.40743  0.67496  0.49052  Biso   1.000  C
  H55      1.0000 0.46791  0.53589  0.53494  Biso   1.000  H
  C57      1.0000 0.44894  0.60004  0.61427  Biso   1.000  C
  O13      1.0000 0.41422  0.66261  0.42796  Biso   1.000  O
  C58      1.0000 0.37275  0.76496  0.50583  Biso   1.000  C
  C59      1.0000 0.41223  0.68679  0.62834  Biso   1.000  C
  C60      1.0000 0.49505  0.51109  0.67042  Biso   1.000  C
  C61      1.0000 0.36326  0.70607  0.35883  Biso   1.000  C
  C62      1.0000 0.37499  0.76786  0.57360  Biso   1.000  C
  O14      1.0000 0.33924  0.84673  0.45278  Biso   1.000  O
  C63      1.0000 0.41181  0.70055  0.70072  Biso   1.000  C
  H56      1.0000 0.53433  0.49566  0.66233  Biso   1.000  H
  H57      1.0000 0.51192  0.54544  0.71832  Biso   1.000  H
  C64      1.0000 0.46062  0.39550  0.66917  Biso   1.000  C
  C65      1.0000 0.29432  0.65121  0.33450  Biso   1.000  C
  H58      1.0000 0.37829  0.69118  0.32250  Biso   1.000  H
  H59      1.0000 0.35911  0.79020  0.36209  Biso   1.000  H
  H60      1.0000 0.35080  0.82631  0.58310  Biso   1.000  H
  C66      1.0000 0.30262  0.93638  0.46706  Biso   1.000  C
  H61      1.0000 0.40800  0.78328  0.70903  Biso   1.000  H
  H62      1.0000 0.45542  0.67347  0.73879  Biso   1.000  H
  C67      1.0000 0.35475  0.63518  0.70756  Biso   1.000  C
  C68      1.0000 0.45948  0.30953  0.62084  Biso   1.000  C
  C69      1.0000 0.43031  0.37131  0.71327  Biso   1.000  C
  O15      1.0000 0.29807  0.53335  0.31257  Biso   1.000  O
  H63      1.0000 0.28232  0.65113  0.37393  Biso   1.000  H
  H64      1.0000 0.25971  0.69486  0.29410  Biso   1.000  H
  H65      1.0000 0.26802  0.90185  0.47672  Biso   1.000  H
  H66      1.0000 0.28154  0.98712  0.42562  Biso   1.000  H
  H67      1.0000 0.33359  0.98098  0.50849  Biso   1.000  H
  C70      1.0000 0.36404  0.52651  0.74183  Biso   1.000  C
  C71      1.0000 0.29072  0.68960  0.68047  Biso   1.000  C
  C72      1.0000 0.42848  0.20261  0.61487  Biso   1.000  C
  H68      1.0000 0.48033  0.32504  0.59174  Biso   1.000  H
  C73      1.0000 0.39821  0.26229  0.70664  Biso   1.000  C
  C74      1.0000 0.43011  0.45553  0.76974  Biso   1.000  C
  C75      1.0000 0.24787  0.45798  0.30914  Biso   1.000  C
  C76      1.0000 0.30912  0.47770  0.74900  Biso   1.000  C
  C77      1.0000 0.23659  0.64043  0.68747  Biso   1.000  C
  H69      1.0000 0.28419  0.76128  0.65690  Biso   1.000  H
  C78      1.0000 0.39608  0.17886  0.65793  Biso   1.000  C
  O16      1.0000 0.42619  0.11384  0.56963  Biso   1.000  O
  H70      1.0000 0.37783  0.24617  0.73602  Biso   1.000  H
  H71      1.0000 0.46849  0.50889  0.78440  Biso   1.000  H
  H72      1.0000 0.43623  0.41153  0.81220  Biso   1.000  H
  C79      1.0000 0.26644  0.34107  0.32706  Biso   1.000  C
  C80      1.0000 0.18080  0.49137  0.28715  Biso   1.000  C
  C81      1.0000 0.24660  0.53256  0.72277  Biso   1.000  C
  H73      1.0000 0.31512  0.40584  0.77229  Biso   1.000  H
  O17      1.0000 0.17320  0.69109  0.66580  Biso   1.000  O
  O18      1.0000 0.36802  0.06879  0.64924  Biso   1.000  O
  C82      1.0000 0.48165  0.10332  0.55372  Biso   1.000  C
  C83      1.0000 0.21912  0.26387  0.32869  Biso   1.000  C
  O19      1.0000 0.33048  0.30181  0.34004  Biso   1.000  O
  C84      1.0000 0.13235  0.41302  0.28742  Biso   1.000  C
  H74      1.0000 0.16770  0.56814  0.27178  Biso   1.000  H
  O20      1.0000 0.19467  0.48427  0.73439  Biso   1.000  O
  C85      1.0000 0.15702  0.79599  0.62334  Biso   1.000  C
  C86      1.0000 0.32305  0.04776  0.68025  Biso   1.000  C
  H75      1.0000 0.51760  0.15599  0.58413  Biso   1.000  H
  H76      1.0000 0.46670  0.12278  0.50360  Biso   1.000  H
  H77      1.0000 0.49851  0.02436  0.56263  Biso   1.000  H
  C87      1.0000 0.15256  0.29866  0.31181  Biso   1.000  C
  H78      1.0000 0.23179  0.18631  0.34140  Biso   1.000  H
  C88      1.0000 0.38214  0.32434  0.41172  Biso   1.000  C
  C89      1.0000 0.05989  0.45807  0.26326  Biso   1.000  C
  C90      1.0000 0.14365  0.42626  0.67167  Biso   1.000  C
  C91      1.0000 0.14493  0.77767  0.54704  Biso   1.000  C
  H79      1.0000 0.19430  0.85128  0.64702  Biso   1.000  H
  H80      1.0000 0.11629  0.83078  0.62209  Biso   1.000  H
  C92      1.0000 0.25531  0.10709  0.63947  Biso   1.000  C
  H81      1.0000 0.34473  0.07537  0.73010  Biso   1.000  H
  H82      1.0000 0.31581  0.96407  0.68101  Biso   1.000  H
  C93      1.0000 0.10608  0.21032  0.32147  Biso   1.000  C
  H83      1.0000 0.38571  0.40724  0.42052  Biso   1.000  H
  H84      1.0000 0.42513  0.29472  0.41742  Biso   1.000  H
  H85      1.0000 0.37049  0.28613  0.44572  Biso   1.000  H
  H86      1.0000 0.04681  0.51021  0.22210  Biso   1.000  H
  H87      1.0000 0.02819  0.39269  0.24822  Biso   1.000  H
  C94      1.0000 0.05621  0.52292  0.32484  Biso   1.000  C
  H88      1.0000 0.12603  0.47936  0.63121  Biso   1.000  H
  H89      1.0000 0.10700  0.40075  0.68112  Biso   1.000  H
  H90      1.0000 0.16351  0.35957  0.66043  Biso   1.000  H
  O21      1.0000 0.08390  0.70721  0.50990  Biso   1.000  O
  H91      1.0000 0.13902  0.85251  0.52272  Biso   1.000  H
  H92      1.0000 0.18382  0.73797  0.54699  Biso   1.000  H
  O22      1.0000 0.21974  0.05319  0.56839  Biso   1.000  O
  H93      1.0000 0.22864  0.09850  0.66542  Biso   1.000  H
  H94      1.0000 0.26182  0.18999  0.63453  Biso   1.000  H
  H95      1.0000 0.11672  0.13312  0.31001  Biso   1.000  H
  H96      1.0000 0.05911  0.22794  0.28661  Biso   1.000  H
  C95      1.0000 0.11080  0.20612  0.39701  Biso   1.000  C
  C96      1.0000 0.07761  0.63938  0.33396  Biso   1.000  C
  C97      1.0000 0.03934  0.47104  0.37501  Biso   1.000  C
  C98      1.0000 0.07519  0.65051  0.44745  Biso   1.000  C
  C99      1.0000 0.16610  0.11936  0.51805  Biso   1.000  C
  C100     1.0000 0.06219  0.25773  0.41395  Biso   1.000  C
  C101     1.0000 0.16382  0.14276  0.45164  Biso   1.000  C
  H97      1.0000 0.08653  0.67426  0.29872  Biso   1.000  H
  C102     1.0000 0.08613  0.70467  0.39337  Biso   1.000  C
  C103     1.0000 0.01002  0.34782  0.36584  Biso   1.000  C
  C104     1.0000 0.05044  0.53694  0.43659  Biso   1.000  C
  C105     1.0000 0.11190  0.15538  0.52967  Biso   1.000  C
  C106     1.0000 0.06257  0.22934  0.47944  Biso   1.000  C
  H98      1.0000 0.19910  0.11524  0.44311  Biso   1.000  H
  O23      1.0000 0.10358  0.82149  0.40135  Biso   1.000  O
  H99      1.0000 0.97201  0.34870  0.37713  Biso   1.000  H
  H100     1.0000 0.99249  0.32434  0.31550  Biso   1.000  H
  H101     1.0000 0.04079  0.50276  0.47140  Biso   1.000  H
  O24      1.0000 0.11059  0.11428  0.59098  Biso   1.000  O
  H102     1.0000 0.02900  0.26036  0.48970  Biso   1.000  H
  C107     1.0000 0.12820  0.86846  0.35449  Biso   1.000  C
  C108     1.0000 0.04805  0.12961  0.59461  Biso   1.000  C
  H103     1.0000 0.16531  0.82123  0.35720  Biso   1.000  H
  H104     1.0000 0.14392  0.94707  0.36910  Biso   1.000  H
  H105     1.0000 0.09190  0.86881  0.30551  Biso   1.000  H
  H106     1.0000 0.04200  0.21111  0.60173  Biso   1.000  H
  H107     1.0000 0.04961  0.08501  0.63453  Biso   1.000  H
  H108     1.0000 0.01051  0.10306  0.55009  Biso   1.000  H
  C109     1.0000 0.67695  0.54780  0.81975  Biso   1.000  C
  H109     1.0000 0.65532  0.57541  0.76990  Biso   1.000  H
  H110     1.0000 0.68419  0.46411  0.81899  Biso   1.000  H
  C110     1.0000 0.74471  0.60713  0.86059  Biso   1.000  C
  O25      1.0000 0.63200  0.56884  0.85081  Biso   1.000  O
  H111     1.0000 0.77143  0.59846  0.83463  Biso   1.000  H
  H112     1.0000 0.73821  0.69004  0.86553  Biso   1.000  H
  O26      1.0000 0.78030  0.55324  0.93162  Biso   1.000  O
  C111     1.0000 0.60395  0.67891  0.84213  Biso   1.000  C
  C112     1.0000 0.83396  0.61940  0.98201  Biso   1.000  C
  C113     1.0000 0.57152  0.70257  0.88513  Biso   1.000  C
  C114     1.0000 0.60182  0.76233  0.79342  Biso   1.000  C
  C115     1.0000 0.88812  0.65542  0.97039  Biso   1.000  C
  C116     1.0000 0.83616  0.64280  0.04831  Biso   1.000  C
  C117     1.0000 0.54054  0.80948  0.87921  Biso   1.000  C
  O27      1.0000 0.57381  0.61379  0.93037  Biso   1.000  O
  H113     1.0000 0.62223  0.74621  0.76404  Biso   1.000  H
  C118     1.0000 0.56974  0.87126  0.78674  Biso   1.000  C
  O28      1.0000 0.88947  0.61432  0.90908  Biso   1.000  O
  C119     1.0000 0.93745  0.72930  0.02051  Biso   1.000  C
  H114     1.0000 0.80090  0.61520  0.05689  Biso   1.000  H
  C120     1.0000 0.88922  0.70607  0.10294  Biso   1.000  C
  C121     1.0000 0.53944  0.89545  0.83088  Biso   1.000  C
  H115     1.0000 0.51974  0.82499  0.90832  Biso   1.000  H
  C122     1.0000 0.51837  0.60328  0.94633  Biso   1.000  C
  C123     1.0000 0.56991  0.95548  0.73032  Biso   1.000  C
  C124     1.0000 0.95194  0.62957  0.90539  Biso   1.000  C
  C125     1.0000 0.93779  0.75769  0.08600  Biso   1.000  C
  H116     1.0000 0.97097  0.76041  0.01025  Biso   1.000  H
  C126     1.0000 0.89397  0.71028  0.17853  Biso   1.000  C
  C127     1.0000 0.50497  0.01113  0.82964  Biso   1.000  C
  H117     1.0000 0.48242  0.65603  0.91592  Biso   1.000  H
  H118     1.0000 0.53330  0.62282  0.99640  Biso   1.000  H
  H119     1.0000 0.50151  0.52441  0.93743  Biso   1.000  H
  H120     1.0000 0.56382  0.91149  0.68780  Biso   1.000  H
  H121     1.0000 0.53151  0.00885  0.71560  Biso   1.000  H
  C128     1.0000 0.63598  0.02647  0.75823  Biso   1.000  C
  H122     1.0000 0.95802  0.71107  0.89833  Biso   1.000  H
  H123     1.0000 0.95042  0.58496  0.86553  Biso   1.000  H
  H124     1.0000 0.98953  0.60310  0.94992  Biso   1.000  H
  C129     1.0000 0.98995  0.84778  0.13411  Biso   1.000  C
  H125     1.0000 0.88332  0.63307  0.18999  Biso   1.000  H
  H126     1.0000 0.94089  0.72789  0.21339  Biso   1.000  H
  C130     1.0000 0.84741  0.79870  0.18814  Biso   1.000  C
  H127     1.0000 0.46574  0.99571  0.83773  Biso   1.000  H
  C131     1.0000 0.55108  0.09999  0.88578  Biso   1.000  C
  H128     1.0000 0.48814  0.04539  0.78174  Biso   1.000  H
  C132     1.0000 0.69088  0.97765  0.75101  Biso   1.000  C
  C133     1.0000 0.64527  0.13522  0.79249  Biso   1.000  C
  C134     1.0000 0.96064  0.97099  0.12493  Biso   1.000  C
  H129     1.0000 0.02799  0.84865  0.12287  Biso   1.000  H
  H130     1.0000 0.00749  0.82429  0.18445  Biso   1.000  H
  C135     1.0000 0.78088  0.76391  0.17131  Biso   1.000  C
  C136     1.0000 0.86767  0.91298  0.21252  Biso   1.000  C
  C137     1.0000 0.58780  0.18675  0.87172  Biso   1.000  C
  C138     1.0000 0.55541  0.09526  0.95513  Biso   1.000  C
  H131     1.0000 0.68492  0.90579  0.72771  Biso   1.000  H
  C139     1.0000 0.75344  0.03260  0.77723  Biso   1.000  C
  C140     1.0000 0.58819  0.20060  0.79928  Biso   1.000  C
  C141     1.0000 0.70933  0.18955  0.81954  Biso   1.000  C
  C142     1.0000 0.94379  0.02287  0.17516  Biso   1.000  C
  C143     1.0000 0.94956  0.03689  0.06341  Biso   1.000  C
  H132     1.0000 0.76818  0.68627  0.15855  Biso   1.000  H
  C144     1.0000 0.73360  0.84112  0.17294  Biso   1.000  C
  C145     1.0000 0.81920  0.99141  0.21285  Biso   1.000  C
  C146     1.0000 0.94009  0.95811  0.23669  Biso   1.000  C
  C147     1.0000 0.62501  0.26790  0.92640  Biso   1.000  C
  H133     1.0000 0.53211  0.03593  0.96512  Biso   1.000  H
  C148     1.0000 0.59255  0.17501  0.00943  Biso   1.000  C
  O29      1.0000 0.80540  0.98423  0.76567  Biso   1.000  O
  C149     1.0000 0.76341  0.14039  0.81253  Biso   1.000  C
  H134     1.0000 0.59202  0.28332  0.79103  Biso   1.000  H
  H135     1.0000 0.54462  0.17352  0.76121  Biso   1.000  H
  H136     1.0000 0.71581  0.26133  0.84310  Biso   1.000  H
  C150     1.0000 0.92239  0.13943  0.16604  Biso   1.000  C
  C151     1.0000 0.92486  0.15047  0.05255  Biso   1.000  C
  H137     1.0000 0.95919  0.00280  0.02855  Biso   1.000  H
  C152     1.0000 0.75213  0.95802  0.19086  Biso   1.000  C
  O30      1.0000 0.66952  0.80186  0.15996  Biso   1.000  O
  H138     1.0000 0.83228  0.06809  0.22816  Biso   1.000  H
  H139     1.0000 0.97180  0.89274  0.25178  Biso   1.000  H
  H140     1.0000 0.95321  0.01017  0.27785  Biso   1.000  H
  H141     1.0000 0.64920  0.32626  0.91690  Biso   1.000  H
  C153     1.0000 0.62725  0.26501  0.99417  Biso   1.000  C
  O31      1.0000 0.58578  0.16265  0.07204  Biso   1.000  O
  C154     1.0000 0.85642  0.92630  0.82839  Biso   1.000  C
  O32      1.0000 0.82687  0.19104  0.83425  Biso   1.000  O
  H142     1.0000 0.91352  0.17431  0.20128  Biso   1.000  H
  C155     1.0000 0.91391  0.20471  0.10663  Biso   1.000  C
  O33      1.0000 0.91610  0.20717  0.99010  Biso   1.000  O
  O34      1.0000 0.70195  0.03330  0.18738  Biso   1.000  O
  C156     1.0000 0.61790  0.82429  0.08828  Biso   1.000  C
  O35      1.0000 0.66075  0.34668  0.04723  Biso   1.000  O
  C157     1.0000 0.63678  0.20612  0.14117  Biso   1.000  C
  H143     1.0000 0.87404  0.97941  0.86884  Biso   1.000  H
  H144     1.0000 0.89302  0.90080  0.81894  Biso   1.000  H
  H145     1.0000 0.83652  0.85961  0.83963  Biso   1.000  H
  C158     1.0000 0.84300  0.29603  0.87672  Biso   1.000  C
  O36      1.0000 0.89644  0.32144  0.09860  Biso   1.000  O
  C159     1.0000 0.85511  0.27771  0.95296  Biso   1.000  C
  C160     1.0000 0.70568  0.15117  0.16550  Biso   1.000  C
  H146     1.0000 0.61429  0.90719  0.07948  Biso   1.000  H
  H147     1.0000 0.57491  0.79467  0.08258  Biso   1.000  H
  H148     1.0000 0.62950  0.78608  0.05429  Biso   1.000  H
  C161     1.0000 0.69735  0.43642  0.03289  Biso   1.000  C
  H149     1.0000 0.62169  0.19122  0.17744  Biso   1.000  H
  H150     1.0000 0.64091  0.29016  0.13786  Biso   1.000  H
  H151     1.0000 0.80573  0.35133  0.85304  Biso   1.000  H
  H152     1.0000 0.88371  0.33082  0.87791  Biso   1.000  H
  C162     1.0000 0.87184  0.36850  0.14551  Biso   1.000  C
  H153     1.0000 0.86104  0.35247  0.97734  Biso   1.000  H
  H154     1.0000 0.81622  0.23802  0.95301  Biso   1.000  H
  H155     1.0000 0.71772  0.15108  0.12607  Biso   1.000  H
  H156     1.0000 0.74031  0.19490  0.20584  Biso   1.000  H
  H157     1.0000 0.66641  0.48103  0.99151  Biso   1.000  H
  H158     1.0000 0.73198  0.40189  0.02328  Biso   1.000  H
  H159     1.0000 0.71851  0.48707  0.07438  Biso   1.000  H
  H160     1.0000 0.83467  0.32118  0.14274  Biso   1.000  H
  H161     1.0000 0.85610  0.44711  0.13085  Biso   1.000  H
  H162     1.0000 0.90810  0.36877  0.19450  Biso   1.000  H
  C163     1.0000 0.32306  0.45220  0.18023  Biso   1.000  C
  C164     1.0000 0.25532  0.39287  0.13945  Biso   1.000  C
  H163     1.0000 0.34469  0.42459  0.23008  Biso   1.000  H
  H164     1.0000 0.31582  0.53589  0.18099  Biso   1.000  H
  O37      1.0000 0.36803  0.43116  0.14922  Biso   1.000  O
  H165     1.0000 0.22860  0.40145  0.16541  Biso   1.000  H
  H166     1.0000 0.26182  0.30996  0.13451  Biso   1.000  H
  O38      1.0000 0.21970  0.44676  0.06837  Biso   1.000  O
  C165     1.0000 0.39608  0.32109  0.15791  Biso   1.000  C
  C166     1.0000 0.16606  0.38060  0.01803  Biso   1.000  C
  C167     1.0000 0.42851  0.29743  0.11490  Biso   1.000  C
  C168     1.0000 0.39821  0.23767  0.20662  Biso   1.000  C
  C169     1.0000 0.11191  0.34458  0.02965  Biso   1.000  C
  C170     1.0000 0.16387  0.35720  0.95172  Biso   1.000  C
  C171     1.0000 0.45949  0.19052  0.12082  Biso   1.000  C
  O39      1.0000 0.42620  0.38621  0.06962  Biso   1.000  O
  H167     1.0000 0.37780  0.25379  0.23600  Biso   1.000  H
  C172     1.0000 0.43029  0.12874  0.21330  Biso   1.000  C
  O40      1.0000 0.11056  0.38568  0.09096  Biso   1.000  O
  C173     1.0000 0.06256  0.27070  0.97947  Biso   1.000  C
  H168     1.0000 0.19913  0.38480  0.94315  Biso   1.000  H
  C174     1.0000 0.11079  0.29393  0.89704  Biso   1.000  C
  C175     1.0000 0.46059  0.10446  0.16915  Biso   1.000  C
  H169     1.0000 0.48029  0.17501  0.09172  Biso   1.000  H
  C176     1.0000 0.48166  0.39672  0.05371  Biso   1.000  C
  C177     1.0000 0.43012  0.04452  0.26972  Biso   1.000  C
  C178     1.0000 0.04806  0.37043  0.09460  Biso   1.000  C
  C179     1.0000 0.06224  0.24231  0.91404  Biso   1.000  C
  H170     1.0000 0.02904  0.23959  0.98974  Biso   1.000  H
  C180     1.0000 0.10606  0.28972  0.82151  Biso   1.000  C
  C181     1.0000 0.49506  0.98887  0.17040  Biso   1.000  C
  H171     1.0000 0.51761  0.34397  0.08411  Biso   1.000  H
  H172     1.0000 0.46671  0.37718  0.00358  Biso   1.000  H
  H173     1.0000 0.49852  0.47559  0.06261  Biso   1.000  H
  H174     1.0000 0.43619  0.08851  0.31219  Biso   1.000  H
  H175     1.0000 0.46849  0.99106  0.28438  Biso   1.000  H
  C182     1.0000 0.36405  0.97353  0.24181  Biso   1.000  C
  H176     1.0000 0.04201  0.28893  0.10171  Biso   1.000  H
  H177     1.0000 0.04961  0.41504  0.13451  Biso   1.000  H
  H178     1.0000 0.01050  0.39690  0.05012  Biso   1.000  H
  C183     1.0000 0.01008  0.15222  0.86593  Biso   1.000  C
  H179     1.0000 0.11671  0.36693  0.81005  Biso   1.000  H
  H180     1.0000 0.05914  0.27211  0.78664  Biso   1.000  H
  C184     1.0000 0.15259  0.20130  0.81184  Biso   1.000  C
  H181     1.0000 0.53429  0.00429  0.16231  Biso   1.000  H
  C185     1.0000 0.44891  0.90001  0.11425  Biso   1.000  C
  H182     1.0000 0.51189  0.95461  0.21830  Biso   1.000  H
  C186     1.0000 0.30913  0.02226  0.24898  Biso   1.000  C
  C187     1.0000 0.35476  0.86478  0.20754  Biso   1.000  C
  H183     1.0000 0.97204  0.15126  0.87717  Biso   1.000  H
  H184     1.0000 0.99252  0.17571  0.81553  Biso   1.000  H
  C188     1.0000 0.03932  0.02901  0.87505  Biso   1.000  C
  C189     1.0000 0.21915  0.23609  0.82873  Biso   1.000  C
  C190     1.0000 0.13233  0.08702  0.78746  Biso   1.000  C
  C191     1.0000 0.41219  0.81316  0.12832  Biso   1.000  C
  C192     1.0000 0.44462  0.90474  0.04491  Biso   1.000  C
  H185     1.0000 0.31511  0.09421  0.27233  Biso   1.000  H
  C193     1.0000 0.24656  0.96740  0.22275  Biso   1.000  C
  C194     1.0000 0.41182  0.79940  0.20070  Biso   1.000  C
  C195     1.0000 0.29068  0.81036  0.18045  Biso   1.000  C
  C196     1.0000 0.05624  0.97713  0.82487  Biso   1.000  C
  C197     1.0000 0.05047  0.96311  0.93663  Biso   1.000  C
  H186     1.0000 0.23182  0.31373  0.84144  Biso   1.000  H
  C198     1.0000 0.26643  0.15888  0.82710  Biso   1.000  C
  C199     1.0000 0.18079  0.00859  0.78719  Biso   1.000  C
  C200     1.0000 0.05992  0.04189  0.76329  Biso   1.000  C
  C201     1.0000 0.37500  0.73210  0.07358  Biso   1.000  C
  C202     1.0000 0.40746  0.82499  0.99055  Biso   1.000  C
  H187     1.0000 0.46792  0.96407  0.03492  Biso   1.000  H
  O41      1.0000 0.19463  0.01577  0.23437  Biso   1.000  O
  C203     1.0000 0.23662  0.85961  0.18751  Biso   1.000  C
  H188     1.0000 0.40801  0.71668  0.20901  Biso   1.000  H
  H189     1.0000 0.45540  0.82648  0.23882  Biso   1.000  H
  H190     1.0000 0.28420  0.73867  0.15688  Biso   1.000  H
  C204     1.0000 0.07764  0.86057  0.83400  Biso   1.000  C
  C205     1.0000 0.07517  0.84953  0.94749  Biso   1.000  C
  H191     1.0000 0.04082  0.99720  0.97144  Biso   1.000  H
  C206     1.0000 0.24790  0.04198  0.80918  Biso   1.000  C
  O42      1.0000 0.33051  0.19814  0.84008  Biso   1.000  O
  H192     1.0000 0.16775  0.93191  0.77187  Biso   1.000  H
  H193     1.0000 0.04680  0.98983  0.72213  Biso   1.000  H
  H194     1.0000 0.02823  0.10726  0.74825  Biso   1.000  H
  H195     1.0000 0.35080  0.67374  0.08308  Biso   1.000  H
  C207     1.0000 0.37276  0.73499  0.00581  Biso   1.000  C
  O43      1.0000 0.41425  0.83735  0.92799  Biso   1.000  O
  C208     1.0000 0.14361  0.07370  0.17165  Biso   1.000  C
  O44      1.0000 0.17316  0.80887  0.16579  Biso   1.000  O
  H196     1.0000 0.08651  0.82569  0.79875  Biso   1.000  H
  C209     1.0000 0.08612  0.79529  0.89340  Biso   1.000  C
  O45      1.0000 0.08391  0.79283  0.00988  Biso   1.000  O
  O46      1.0000 0.29806  0.96661  0.81260  Biso   1.000  O
  C210     1.0000 0.38212  0.17571  0.91176  Biso   1.000  C
  O47      1.0000 0.33928  0.65332  0.95281  Biso   1.000  O
  C211     1.0000 0.36325  0.79388  0.85887  Biso   1.000  C
  H197     1.0000 0.12599  0.02059  0.13120  Biso   1.000  H
  H198     1.0000 0.10701  0.09920  0.18110  Biso   1.000  H
  H199     1.0000 0.16351  0.14039  0.16041  Biso   1.000  H
  C212     1.0000 0.15698  0.70397  0.12332  Biso   1.000  C
  O48      1.0000 0.10357  0.67856  0.90139  Biso   1.000  O
  C213     1.0000 0.14492  0.72229  0.04708  Biso   1.000  C
  C214     1.0000 0.29430  0.84883  0.83454  Biso   1.000  C
  H200     1.0000 0.38574  0.09281  0.92056  Biso   1.000  H
  H201     1.0000 0.42512  0.20533  0.91746  Biso   1.000  H
  H202     1.0000 0.37053  0.21392  0.94575  Biso   1.000  H
  C215     1.0000 0.30265  0.56358  0.96709  Biso   1.000  C
  H203     1.0000 0.37832  0.80878  0.82254  Biso   1.000  H
  H204     1.0000 0.35909  0.70984  0.86213  Biso   1.000  H
  H205     1.0000 0.19430  0.64867  0.14700  Biso   1.000  H
  H206     1.0000 0.11632  0.66918  0.12213  Biso   1.000  H
  C216     1.0000 0.12819  0.63150  0.85452  Biso   1.000  C
  H207     1.0000 0.13899  0.64753  0.02270  Biso   1.000  H
  H208     1.0000 0.18381  0.76198  0.04703  Biso   1.000  H
  H209     1.0000 0.28231  0.84892  0.87396  Biso   1.000  H
  H210     1.0000 0.25970  0.80510  0.79414  Biso   1.000  H
  H211     1.0000 0.26801  0.59811  0.97676  Biso   1.000  H
  H212     1.0000 0.28152  0.51293  0.92566  Biso   1.000  H
  H213     1.0000 0.33362  0.51897  0.00853  Biso   1.000  H
  H214     1.0000 0.16530  0.67882  0.85724  Biso   1.000  H
  H215     1.0000 0.14391  0.55289  0.86913  Biso   1.000  H
  H216     1.0000 0.09193  0.63123  0.80554  Biso   1.000  H
