data_image0
_cell_length_a       21.374
_cell_length_b       11.973
_cell_length_c       22.305
_cell_angle_alpha    90
_cell_angle_beta     111.01
_cell_angle_gamma    90

_symmetry_space_group_name_H-M    "P 1"
_symmetry_int_tables_number       1

loop_
  _symmetry_equiv_pos_as_xyz
  'x, y, z'

loop_
  _atom_site_label
  _atom_site_occupancy
  _atom_site_fract_x
  _atom_site_fract_y
  _atom_site_fract_z
  _atom_site_thermal_displace_type
  _atom_site_B_iso_or_equiv
  _atom_site_type_symbol
  C1       1.0000 0.41708  0.52451  0.52929  Biso   1.000  C
  O1       1.0000 0.36912  0.45110  0.54077  Biso   1.000  O
  H1       1.0000 0.39522  0.57112  0.49212  Biso   1.000  H
  H2       1.0000 0.45188  0.48142  0.52151  Biso   1.000  H
  C2       1.0000 0.44652  0.59442  0.58721  Biso   1.000  C
  C3       1.0000 0.31703  0.42053  0.48607  Biso   1.000  C
  H3       1.0000 0.41072  0.62758  0.59831  Biso   1.000  H
  H4       1.0000 0.47280  0.54773  0.62280  Biso   1.000  H
  O2       1.0000 0.48733  0.67953  0.57799  Biso   1.000  O
  C4       1.0000 0.32568  0.38620  0.43055  Biso   1.000  C
  C5       1.0000 0.25242  0.42278  0.48809  Biso   1.000  C
  C6       1.0000 0.45366  0.77073  0.54164  Biso   1.000  C
  C7       1.0000 0.27171  0.36140  0.37422  Biso   1.000  C
  H5       1.0000 0.36899  0.37927  0.43050  Biso   1.000  H
  C8       1.0000 0.19902  0.40132  0.43252  Biso   1.000  C
  O3       1.0000 0.24441  0.45511  0.54408  Biso   1.000  O
  C9       1.0000 0.40581  0.83162  0.55681  Biso   1.000  C
  C10      1.0000 0.47256  0.80514  0.49111  Biso   1.000  C
  C11      1.0000 0.28694  0.32506  0.31539  Biso   1.000  C
  C12      1.0000 0.20661  0.37209  0.37489  Biso   1.000  C
  H6       1.0000 0.15589  0.40650  0.43329  Biso   1.000  H
  C13      1.0000 0.20842  0.38462  0.57031  Biso   1.000  C
  C14      1.0000 0.37529  0.92583  0.52276  Biso   1.000  C
  H7       1.0000 0.39399  0.80824  0.59110  Biso   1.000  H
  C15      1.0000 0.44388  0.90153  0.45735  Biso   1.000  C
  O4       1.0000 0.51997  0.74250  0.47829  Biso   1.000  O
  H8       1.0000 0.32610  0.27721  0.32888  Biso   1.000  H
  H9       1.0000 0.24949  0.28213  0.28719  Biso   1.000  H
  C16      1.0000 0.29945  0.42387  0.27865  Biso   1.000  C
  C17      1.0000 0.14418  0.35747  0.31582  Biso   1.000  C
  H10      1.0000 0.16948  0.35446  0.53650  Biso   1.000  H
  H11      1.0000 0.19328  0.42587  0.59999  Biso   1.000  H
  C18      1.0000 0.25309  0.29450  0.60378  Biso   1.000  C
  C19      1.0000 0.32249  0.98705  0.54231  Biso   1.000  C
  C20      1.0000 0.39505  0.96308  0.47214  Biso   1.000  C
  H12      1.0000 0.45729  0.92583  0.42431  Biso   1.000  H
  C21      1.0000 0.53558  0.77408  0.42258  Biso   1.000  C
  C22      1.0000 0.36408  0.46964  0.29872  Biso   1.000  C
  C23      1.0000 0.24877  0.47574  0.22673  Biso   1.000  C
  C24      1.0000 0.11839  0.46605  0.27980  Biso   1.000  C
  H13      1.0000 0.10920  0.32523  0.32850  Biso   1.000  H
  H14      1.0000 0.15370  0.30527  0.28700  Biso   1.000  H
  H15      1.0000 0.29199  0.32022  0.63562  Biso   1.000  H
  C25      1.0000 0.25081  0.18901  0.59931  Biso   1.000  C
  H16      1.0000 0.33390  0.97895  0.58832  Biso   1.000  H
  C26      1.0000 0.25113  0.94571  0.50840  Biso   1.000  C
  H17      1.0000 0.32430  0.06598  0.53328  Biso   1.000  H
  C27      1.0000 0.36790  0.06690  0.43247  Biso   1.000  C
  H18      1.0000 0.49672  0.76430  0.38450  Biso   1.000  H
  H19      1.0000 0.57128  0.72797  0.41999  Biso   1.000  H
  H20      1.0000 0.54918  0.85100  0.42618  Biso   1.000  H
  H21      1.0000 0.39832  0.43473  0.33171  Biso   1.000  H
  C28      1.0000 0.37868  0.56419  0.27135  Biso   1.000  C
  C29      1.0000 0.26461  0.57179  0.20041  Biso   1.000  C
  C30      1.0000 0.17699  0.43322  0.19907  Biso   1.000  C
  C31      1.0000 0.13032  0.49787  0.22414  Biso   1.000  C
  C32      1.0000 0.08042  0.53779  0.30261  Biso   1.000  C
  H22      1.0000 0.21401  0.15451  0.56911  Biso   1.000  H
  H23      1.0000 0.28580  0.14608  0.62631  Biso   1.000  H
  C33      1.0000 0.20581  0.99791  0.45380  Biso   1.000  C
  C34      1.0000 0.23014  0.85142  0.53357  Biso   1.000  C
  C35      1.0000 0.30850  0.04544  0.37124  Biso   1.000  C
  H24      1.0000 0.40347  0.10081  0.42138  Biso   1.000  H
  H25      1.0000 0.35470  0.12002  0.45860  Biso   1.000  H
  C36      1.0000 0.32790  0.61948  0.22241  Biso   1.000  C
  O5       1.0000 0.44421  0.60611  0.29329  Biso   1.000  O
  H26      1.0000 0.23112  0.60578  0.16631  Biso   1.000  H
  H27      1.0000 0.16090  0.43907  0.15258  Biso   1.000  H
  H28      1.0000 0.17623  0.35488  0.20992  Biso   1.000  H
  C37      1.0000 0.09996  0.59417  0.19138  Biso   1.000  C
  C38      1.0000 0.05213  0.63510  0.27125  Biso   1.000  C
  H29      1.0000 0.07402  0.51934  0.34050  Biso   1.000  H
  C39      1.0000 0.14154  0.95231  0.42508  Biso   1.000  C
  C40      1.0000 0.22247  0.09972  0.42191  Biso   1.000  C
  C41      1.0000 0.16606  0.80815  0.50586  Biso   1.000  C
  H30      1.0000 0.26011  0.81700  0.56992  Biso   1.000  H
  C42      1.0000 0.32073  0.00468  0.31740  Biso   1.000  C
  C43      1.0000 0.24249  0.06640  0.36514  Biso   1.000  C
  O6       1.0000 0.33860  0.71695  0.19398  Biso   1.000  O
  C44      1.0000 0.47838  0.58690  0.24882  Biso   1.000  C
  H31      1.0000 0.10658  0.61338  0.15368  Biso   1.000  H
  C45      1.0000 0.06001  0.66249  0.21328  Biso   1.000  C
  O7       1.0000 0.01361  0.69832  0.29661  Biso   1.000  O
  C46      1.0000 0.12099  0.85793  0.44967  Biso   1.000  C
  H32      1.0000 0.11171  0.98622  0.38848  Biso   1.000  H
  H33      1.0000 0.25899  0.14040  0.45312  Biso   1.000  H
  H34      1.0000 0.18381  0.14875  0.40712  Biso   1.000  H
  O8       1.0000 0.14028  0.71979  0.52848  Biso   1.000  O
  C47      1.0000 0.27020  0.98538  0.25939  Biso   1.000  C
  H35      1.0000 0.36469  0.99023  0.32110  Biso   1.000  H
  C48      1.0000 0.19140  0.05070  0.30535  Biso   1.000  C
  C49      1.0000 0.36936  0.80715  0.23830  Biso   1.000  C
  H36      1.0000 0.45160  0.61455  0.20651  Biso   1.000  H
  H37      1.0000 0.48611  0.50764  0.24560  Biso   1.000  H
  C50      1.0000 0.54359  0.64804  0.27432  Biso   1.000  C
  O9       1.0000 0.02669  0.75679  0.18288  Biso   1.000  O
  C51      1.0000 0.03189  0.81508  0.30881  Biso   1.000  C
  O10      1.0000 0.05912  0.80840  0.42474  Biso   1.000  O
  C52      1.0000 0.18390  0.66809  0.58630  Biso   1.000  C
  O11      1.0000 0.27742  0.94312  0.20464  Biso   1.000  O
  C53      1.0000 0.20356  0.01169  0.25257  Biso   1.000  C
  H38      1.0000 0.14751  0.06723  0.30122  Biso   1.000  H
  H39      1.0000 0.41772  0.80464  0.25002  Biso   1.000  H
  H40      1.0000 0.35919  0.79888  0.27701  Biso   1.000  H
  C54      1.0000 0.34299  0.91589  0.20670  Biso   1.000  C
  H41      1.0000 0.57079  0.63794  0.31711  Biso   1.000  H
  C55      1.0000 0.56378  0.71561  0.23850  Biso   1.000  C
  C56      1.0000 0.01659  0.77182  0.11661  Biso   1.000  C
  H42      1.0000 0.00769  0.85985  0.27139  Biso   1.000  H
  H43      1.0000 0.07960  0.82469  0.31841  Biso   1.000  H
  C57      1.0000 0.01382  0.85075  0.36543  Biso   1.000  C
  H44      1.0000 0.22437  0.64478  0.58068  Biso   1.000  H
  H45      1.0000 0.16199  0.60419  0.59590  Biso   1.000  H
  H46      1.0000 0.19449  0.72054  0.62112  Biso   1.000  H
  O12      1.0000 0.15676  0.99724  0.19302  Biso   1.000  O
  H47      1.0000 0.37342  0.97478  0.22952  Biso   1.000  H
  H48      1.0000 0.34271  0.91422  0.16319  Biso   1.000  H
  H49      1.0000 0.53729  0.72672  0.19571  Biso   1.000  H
  H50      1.0000 0.60481  0.75219  0.25612  Biso   1.000  H
  H51      1.0000 0.05911  0.76355  0.11060  Biso   1.000  H
  H52      1.0000 0.00037  0.84699  0.10378  Biso   1.000  H
  C58      1.0000 0.96841  0.69172  0.07550  Biso   1.000  C
  H53      1.0000 0.01358  0.93168  0.36730  Biso   1.000  H
  H54      1.0000 0.96891  0.82477  0.35919  Biso   1.000  H
  C59      1.0000 0.09203  0.04051  0.18331  Biso   1.000  C
  H55      1.0000 0.92991  0.67719  0.08438  Biso   1.000  H
  C60      1.0000 0.97599  0.63860  0.02661  Biso   1.000  C
  H56      1.0000 0.07190  0.99841  0.20829  Biso   1.000  H
  H57      1.0000 0.06458  0.03508  0.13860  Biso   1.000  H
  H58      1.0000 0.09579  0.11743  0.19638  Biso   1.000  H
  H59      1.0000 0.01389  0.65113  0.01638  Biso   1.000  H
  H60      1.0000 0.94331  0.58874  0.00240  Biso   1.000  H
  C61      1.0000 0.58291  0.47549  0.47070  Biso   1.000  C
  C62      1.0000 0.55348  0.40558  0.41278  Biso   1.000  C
  H61      1.0000 0.60479  0.42888  0.50792  Biso   1.000  H
  H62      1.0000 0.54812  0.51858  0.47848  Biso   1.000  H
  O13      1.0000 0.63088  0.54890  0.45922  Biso   1.000  O
  O14      1.0000 0.51267  0.32047  0.42200  Biso   1.000  O
  H63      1.0000 0.58928  0.37242  0.40169  Biso   1.000  H
  H64      1.0000 0.52720  0.45227  0.37720  Biso   1.000  H
  C63      1.0000 0.68297  0.57947  0.51392  Biso   1.000  C
  C64      1.0000 0.54634  0.22927  0.45836  Biso   1.000  C
  C65      1.0000 0.74758  0.57722  0.51191  Biso   1.000  C
  C66      1.0000 0.67432  0.61380  0.56944  Biso   1.000  C
  C67      1.0000 0.59419  0.16838  0.44318  Biso   1.000  C
  C68      1.0000 0.52744  0.19494  0.50888  Biso   1.000  C
  C69      1.0000 0.80100  0.59868  0.56752  Biso   1.000  C
  O15      1.0000 0.75559  0.54489  0.45591  Biso   1.000  O
  H65      1.0000 0.63101  0.62073  0.56949  Biso   1.000  H
  C70      1.0000 0.72828  0.63860  0.62578  Biso   1.000  C
  C71      1.0000 0.62471  0.07417  0.47723  Biso   1.000  C
  H66      1.0000 0.60601  0.19176  0.40889  Biso   1.000  H
  C72      1.0000 0.55612  0.09847  0.54264  Biso   1.000  C
  O16      1.0000 0.48003  0.25750  0.52170  Biso   1.000  O
  C73      1.0000 0.79339  0.62791  0.62510  Biso   1.000  C
  H67      1.0000 0.84411  0.59350  0.56671  Biso   1.000  H
  C74      1.0000 0.79158  0.61538  0.42969  Biso   1.000  C
  C75      1.0000 0.71305  0.67494  0.68461  Biso   1.000  C
  C76      1.0000 0.67751  0.01303  0.45769  Biso   1.000  C
  C77      1.0000 0.60495  0.03692  0.52785  Biso   1.000  C
  H68      1.0000 0.54271  0.07417  0.57569  Biso   1.000  H
  C78      1.0000 0.46442  0.22592  0.57741  Biso   1.000  C
  C79      1.0000 0.85582  0.64253  0.68418  Biso   1.000  C
  H69      1.0000 0.83048  0.64554  0.46350  Biso   1.000  H
  H70      1.0000 0.80672  0.57413  0.40001  Biso   1.000  H
  C80      1.0000 0.74691  0.70550  0.39621  Biso   1.000  C
  H71      1.0000 0.67390  0.72279  0.67111  Biso   1.000  H
  H72      1.0000 0.75050  0.71795  0.71280  Biso   1.000  H
  C81      1.0000 0.70055  0.57613  0.72135  Biso   1.000  C
  H73      1.0000 0.66610  0.02113  0.41168  Biso   1.000  H
  C82      1.0000 0.74887  0.05429  0.49159  Biso   1.000  C
  H74      1.0000 0.67570  0.93402  0.46672  Biso   1.000  H
  C83      1.0000 0.63210  0.93310  0.56752  Biso   1.000  C
  H75      1.0000 0.50328  0.23570  0.61550  Biso   1.000  H
  H76      1.0000 0.42871  0.27203  0.58001  Biso   1.000  H
  H77      1.0000 0.45082  0.14900  0.57381  Biso   1.000  H
  C84      1.0000 0.88161  0.53403  0.72020  Biso   1.000  C
  H78      1.0000 0.89080  0.67485  0.67150  Biso   1.000  H
  H79      1.0000 0.84630  0.69473  0.71299  Biso   1.000  H
  H80      1.0000 0.70802  0.67978  0.36442  Biso   1.000  H
  C85      1.0000 0.74919  0.81099  0.40068  Biso   1.000  C
  C86      1.0000 0.63592  0.53044  0.70127  Biso   1.000  C
  C87      1.0000 0.75125  0.52435  0.77331  Biso   1.000  C
  C88      1.0000 0.79419  0.00209  0.54620  Biso   1.000  C
  C89      1.0000 0.76986  0.14858  0.46643  Biso   1.000  C
  H81      1.0000 0.59653  0.89919  0.57862  Biso   1.000  H
  H82      1.0000 0.64530  0.87998  0.54140  Biso   1.000  H
  C90      1.0000 0.69150  0.95456  0.62875  Biso   1.000  C
  C91      1.0000 0.86968  0.50213  0.77586  Biso   1.000  C
  C92      1.0000 0.91953  0.46221  0.69738  Biso   1.000  C
  H83      1.0000 0.78599  0.84549  0.43089  Biso   1.000  H
  H84      1.0000 0.71420  0.85392  0.37369  Biso   1.000  H
  H85      1.0000 0.60168  0.56527  0.66828  Biso   1.000  H
  C93      1.0000 0.62132  0.43581  0.72865  Biso   1.000  C
  C94      1.0000 0.73541  0.42821  0.79963  Biso   1.000  C
  C95      1.0000 0.82301  0.56678  0.80093  Biso   1.000  C
  C96      1.0000 0.85846  0.04769  0.57492  Biso   1.000  C
  C97      1.0000 0.77753  0.90028  0.57809  Biso   1.000  C
  C98      1.0000 0.83394  0.19193  0.49414  Biso   1.000  C
  H86      1.0000 0.73990  0.18300  0.43012  Biso   1.000  H
  C99      1.0000 0.67929  0.99532  0.68264  Biso   1.000  C
  C100     1.0000 0.75751  0.93360  0.63485  Biso   1.000  C
  C101     1.0000 0.90004  0.40583  0.80861  Biso   1.000  C
  C102     1.0000 0.94787  0.36490  0.72874  Biso   1.000  C
  H87      1.0000 0.92598  0.48075  0.65949  Biso   1.000  H
  C103     1.0000 0.67210  0.38052  0.77759  Biso   1.000  C
  O17      1.0000 0.55579  0.39389  0.70670  Biso   1.000  O
  H88      1.0000 0.76888  0.39422  0.83368  Biso   1.000  H
  H89      1.0000 0.83909  0.56093  0.84742  Biso   1.000  H
  H90      1.0000 0.82379  0.64512  0.79012  Biso   1.000  H
  H91      1.0000 0.88829  0.01378  0.61151  Biso   1.000  H
  C104     1.0000 0.87901  0.14207  0.55033  Biso   1.000  C
  H92      1.0000 0.74103  0.85960  0.54692  Biso   1.000  H
  H93      1.0000 0.81619  0.85133  0.59288  Biso   1.000  H
  O18      1.0000 0.85972  0.28021  0.47152  Biso   1.000  O
  H94      1.0000 0.63531  0.00977  0.67889  Biso   1.000  H
  C105     1.0000 0.72980  0.01462  0.74061  Biso   1.000  C
  C106     1.0000 0.80860  0.94930  0.69465  Biso   1.000  C
  H95      1.0000 0.89342  0.38662  0.84631  Biso   1.000  H
  C107     1.0000 0.93999  0.33751  0.78671  Biso   1.000  C
  O19      1.0000 0.98639  0.30168  0.70339  Biso   1.000  O
  O20      1.0000 0.66140  0.28314  0.80602  Biso   1.000  O
  C108     1.0000 0.52164  0.41310  0.75122  Biso   1.000  C
  O21      1.0000 0.94088  0.19160  0.57525  Biso   1.000  O
  C109     1.0000 0.81610  0.33191  0.41369  Biso   1.000  C
  O22      1.0000 0.72258  0.05688  0.79536  Biso   1.000  O
  C110     1.0000 0.79644  0.98831  0.74743  Biso   1.000  C
  H96      1.0000 0.85249  0.93277  0.69878  Biso   1.000  H
  O23      1.0000 0.97331  0.24321  0.81711  Biso   1.000  O
  C111     1.0000 0.96811  0.18492  0.69119  Biso   1.000  C
  C112     1.0000 0.63064  0.19293  0.76169  Biso   1.000  C
  H97      1.0000 0.54840  0.38553  0.79348  Biso   1.000  H
  H98      1.0000 0.51389  0.49244  0.75439  Biso   1.000  H
  C113     1.0000 0.45642  0.35204  0.72572  Biso   1.000  C
  C114     1.0000 0.98620  0.14934  0.63461  Biso   1.000  C
  H99      1.0000 0.77563  0.35522  0.41931  Biso   1.000  H
  H100     1.0000 0.83800  0.39581  0.40409  Biso   1.000  H
  H101     1.0000 0.80551  0.27955  0.37888  Biso   1.000  H
  C115     1.0000 0.65701  0.08411  0.79329  Biso   1.000  C
  O24      1.0000 0.84324  0.00284  0.80698  Biso   1.000  O
  C116     1.0000 0.98341  0.22818  0.88339  Biso   1.000  C
  H102     1.0000 0.99231  0.14023  0.72860  Biso   1.000  H
  H103     1.0000 0.92040  0.17531  0.68158  Biso   1.000  H
  H104     1.0000 0.58229  0.19544  0.75002  Biso   1.000  H
  H105     1.0000 0.64081  0.20112  0.72298  Biso   1.000  H
  H106     1.0000 0.42921  0.36206  0.68288  Biso   1.000  H
  C117     1.0000 0.43622  0.28439  0.76150  Biso   1.000  C
  H107     1.0000 0.98642  0.06832  0.63269  Biso   1.000  H
  H108     1.0000 0.03109  0.17523  0.64081  Biso   1.000  H
  H109     1.0000 0.62658  0.02522  0.77048  Biso   1.000  H
  H110     1.0000 0.65729  0.08578  0.83680  Biso   1.000  H
  C118     1.0000 0.90797  0.95949  0.81668  Biso   1.000  C
  H111     1.0000 0.94089  0.23653  0.88939  Biso   1.000  H
  H112     1.0000 0.99963  0.15301  0.89621  Biso   1.000  H
  C119     1.0000 0.03159  0.30828  0.92450  Biso   1.000  C
  H113     1.0000 0.46271  0.27328  0.80429  Biso   1.000  H
  H114     1.0000 0.39521  0.24781  0.74392  Biso   1.000  H
  H115     1.0000 0.92810  0.00159  0.79171  Biso   1.000  H
  H116     1.0000 0.93542  0.96492  0.86139  Biso   1.000  H
  H117     1.0000 0.90421  0.88257  0.80362  Biso   1.000  H
  H118     1.0000 0.07009  0.32281  0.91561  Biso   1.000  H
  C120     1.0000 0.02401  0.36140  0.97339  Biso   1.000  C
  H119     1.0000 0.98611  0.34887  0.98362  Biso   1.000  H
  H120     1.0000 0.05669  0.41134  0.99759  Biso   1.000  H
  C121     1.0000 0.56380  0.78443  0.73849  Biso   1.000  C
  C122     1.0000 0.54362  0.85200  0.77432  Biso   1.000  C
  H121     1.0000 0.53731  0.77332  0.69570  Biso   1.000  H
  H122     1.0000 0.60479  0.74785  0.75612  Biso   1.000  H
  C123     1.0000 0.47835  0.91314  0.74882  Biso   1.000  C
  H123     1.0000 0.57081  0.86211  0.81711  Biso   1.000  H
  O25      1.0000 0.44418  0.89393  0.79329  Biso   1.000  O
  H124     1.0000 0.45162  0.88549  0.70651  Biso   1.000  H
  H125     1.0000 0.48609  0.99240  0.74560  Biso   1.000  H
  C124     1.0000 0.37871  0.93586  0.77134  Biso   1.000  C
  C125     1.0000 0.32793  0.88048  0.72240  Biso   1.000  C
  C126     1.0000 0.36410  0.03040  0.79872  Biso   1.000  C
  O26      1.0000 0.33864  0.78310  0.69402  Biso   1.000  O
  C127     1.0000 0.26463  0.92826  0.70041  Biso   1.000  C
  C128     1.0000 0.29944  0.07609  0.77869  Biso   1.000  C
  H126     1.0000 0.39830  0.06531  0.83171  Biso   1.000  H
  C129     1.0000 0.36938  0.69289  0.73830  Biso   1.000  C
  H127     1.0000 0.23110  0.89418  0.66631  Biso   1.000  H
  C130     1.0000 0.24879  0.02430  0.72673  Biso   1.000  C
  C131     1.0000 0.28692  0.17489  0.81538  Biso   1.000  C
  C132     1.0000 0.34296  0.58415  0.70670  Biso   1.000  C
  H128     1.0000 0.41770  0.69540  0.75002  Biso   1.000  H
  H129     1.0000 0.35921  0.70108  0.77701  Biso   1.000  H
  C133     1.0000 0.17696  0.06682  0.69906  Biso   1.000  C
  H130     1.0000 0.32608  0.22283  0.82888  Biso   1.000  H
  H131     1.0000 0.24952  0.21791  0.78719  Biso   1.000  H
  C134     1.0000 0.27174  0.13865  0.87421  Biso   1.000  C
  H132     1.0000 0.37339  0.52518  0.72951  Biso   1.000  H
  H133     1.0000 0.34268  0.58582  0.66319  Biso   1.000  H
  O27      1.0000 0.27739  0.55692  0.70464  Biso   1.000  O
  H134     1.0000 0.16090  0.06089  0.65262  Biso   1.000  H
  H135     1.0000 0.17621  0.14516  0.70992  Biso   1.000  H
  C135     1.0000 0.13034  0.00209  0.72413  Biso   1.000  C
  C136     1.0000 0.20658  0.12795  0.87489  Biso   1.000  C
  C137     1.0000 0.32571  0.11384  0.93055  Biso   1.000  C
  C138     1.0000 0.27024  0.51457  0.75943  Biso   1.000  C
  C139     1.0000 0.09998  0.90579  0.69138  Biso   1.000  C
  C140     1.0000 0.11844  0.03399  0.77984  Biso   1.000  C
  C141     1.0000 0.14420  0.14249  0.81582  Biso   1.000  C
  C142     1.0000 0.19900  0.09872  0.93252  Biso   1.000  C
  C143     1.0000 0.31700  0.07951  0.98607  Biso   1.000  C
  H136     1.0000 0.36901  0.12069  0.93050  Biso   1.000  H
  C144     1.0000 0.32071  0.49528  0.81740  Biso   1.000  C
  C145     1.0000 0.20360  0.48835  0.75261  Biso   1.000  C
  H137     1.0000 0.10660  0.88658  0.65368  Biso   1.000  H
  C146     1.0000 0.06003  0.83755  0.71328  Biso   1.000  C
  C147     1.0000 0.08045  0.96225  0.80261  Biso   1.000  C
  H138     1.0000 0.10922  0.17481  0.82849  Biso   1.000  H
  H139     1.0000 0.15372  0.19469  0.78700  Biso   1.000  H
  H140     1.0000 0.15591  0.09354  0.93329  Biso   1.000  H
  C148     1.0000 0.25240  0.07726  0.98808  Biso   1.000  C
  O28      1.0000 0.36910  0.04894  0.04077  Biso   1.000  O
  C149     1.0000 0.30852  0.45461  0.87124  Biso   1.000  C
  H141     1.0000 0.36471  0.50981  0.82110  Biso   1.000  H
  C150     1.0000 0.19137  0.44934  0.80535  Biso   1.000  C
  O29      1.0000 0.15673  0.50280  0.69301  Biso   1.000  O
  C151     1.0000 0.05215  0.86495  0.77125  Biso   1.000  C
  O30      1.0000 0.02672  0.74317  0.68288  Biso   1.000  O
  H142     1.0000 0.07399  0.98071  0.84050  Biso   1.000  H
  O31      1.0000 0.24439  0.04493  0.04408  Biso   1.000  O
  C152     1.0000 0.41711  0.97553  0.02929  Biso   1.000  C
  C153     1.0000 0.36792  0.43314  0.93247  Biso   1.000  C
  C154     1.0000 0.24252  0.43364  0.86514  Biso   1.000  C
  H143     1.0000 0.14749  0.43281  0.80122  Biso   1.000  H
  C155     1.0000 0.09200  0.45953  0.68331  Biso   1.000  C
  O32      1.0000 0.01364  0.80172  0.79660  Biso   1.000  O
  C156     1.0000 0.01661  0.72822  0.61660  Biso   1.000  C
  C157     1.0000 0.20840  0.11543  0.07030  Biso   1.000  C
  C158     1.0000 0.44650  0.90562  0.08721  Biso   1.000  C
  H144     1.0000 0.39520  0.92892  0.99212  Biso   1.000  H
  H145     1.0000 0.45191  0.01863  0.02151  Biso   1.000  H
  C159     1.0000 0.39507  0.53687  0.97214  Biso   1.000  C
  H146     1.0000 0.40349  0.39923  0.92138  Biso   1.000  H
  H147     1.0000 0.35468  0.38002  0.95860  Biso   1.000  H
  C160     1.0000 0.22246  0.40032  0.92195  Biso   1.000  C
  H148     1.0000 0.07187  0.50163  0.70829  Biso   1.000  H
  H149     1.0000 0.06461  0.46488  0.63860  Biso   1.000  H
  H150     1.0000 0.09579  0.38261  0.69642  Biso   1.000  H
  C161     1.0000 0.03186  0.68487  0.80880  Biso   1.000  C
  H151     1.0000 0.05909  0.73649  0.61060  Biso   1.000  H
  H152     1.0000 0.00040  0.65297  0.60378  Biso   1.000  H
  C162     1.0000 0.96838  0.80832  0.57549  Biso   1.000  C
  H153     1.0000 0.16950  0.14549  0.03649  Biso   1.000  H
  H154     1.0000 0.19330  0.07408  0.09998  Biso   1.000  H
  C163     1.0000 0.25311  0.20555  0.10378  Biso   1.000  C
  O33      1.0000 0.48731  0.82051  0.07799  Biso   1.000  O
  H155     1.0000 0.41069  0.87238  0.09830  Biso   1.000  H
  H156     1.0000 0.47282  0.95231  0.12280  Biso   1.000  H
  C164     1.0000 0.44390  0.59851  0.95735  Biso   1.000  C
  C165     1.0000 0.37527  0.57421  0.02276  Biso   1.000  C
  H157     1.0000 0.25901  0.35964  0.95312  Biso   1.000  H
  H158     1.0000 0.18378  0.35129  0.90711  Biso   1.000  H
  C166     1.0000 0.20583  0.50213  0.95379  Biso   1.000  C
  C167     1.0000 0.01384  0.64929  0.86543  Biso   1.000  C
  H159     1.0000 0.00771  0.64019  0.77139  Biso   1.000  H
  H160     1.0000 0.07962  0.67535  0.81841  Biso   1.000  H
  H161     1.0000 0.92988  0.82285  0.58438  Biso   1.000  H
  C168     1.0000 0.97601  0.86144  0.52660  Biso   1.000  C
  H162     1.0000 0.29202  0.17982  0.13562  Biso   1.000  H
  C169     1.0000 0.25078  0.31103  0.09931  Biso   1.000  C
  C170     1.0000 0.45363  0.72931  0.04163  Biso   1.000  C
  C171     1.0000 0.47253  0.69490  0.99111  Biso   1.000  C
  H163     1.0000 0.45732  0.57421  0.92431  Biso   1.000  H
  C172     1.0000 0.32251  0.51299  0.04231  Biso   1.000  C
  C173     1.0000 0.40584  0.66842  0.05681  Biso   1.000  C
  C174     1.0000 0.14154  0.54773  0.92512  Biso   1.000  C
  C175     1.0000 0.25111  0.55433  0.00840  Biso   1.000  C
  O34      1.0000 0.05910  0.69164  0.92474  Biso   1.000  O
  H164     1.0000 0.01361  0.56828  0.86730  Biso   1.000  H
  H165     1.0000 0.96888  0.67519  0.85918  Biso   1.000  H
  H166     1.0000 0.01389  0.84891  0.51642  Biso   1.000  H
  H167     1.0000 0.94328  0.91130  0.50240  Biso   1.000  H
  H168     1.0000 0.21398  0.34553  0.06910  Biso   1.000  H
  H169     1.0000 0.28582  0.35396  0.12630  Biso   1.000  H
  O35      1.0000 0.52000  0.75754  0.97829  Biso   1.000  O
  H170     1.0000 0.33392  0.52109  0.08831  Biso   1.000  H
  H171     1.0000 0.32428  0.43398  0.03328  Biso   1.000  H
  H172     1.0000 0.39401  0.69181  0.09110  Biso   1.000  H
  H173     1.0000 0.11169  0.51382  0.88848  Biso   1.000  H
  C176     1.0000 0.12101  0.64211  0.94966  Biso   1.000  C
  C177     1.0000 0.23016  0.64863  0.03356  Biso   1.000  C
  C178     1.0000 0.53560  0.72588  0.92258  Biso   1.000  C
  C179     1.0000 0.16604  0.69189  0.00585  Biso   1.000  C
  H174     1.0000 0.26009  0.68304  0.06992  Biso   1.000  H
  H175     1.0000 0.49669  0.73574  0.88449  Biso   1.000  H
  H176     1.0000 0.57131  0.77199  0.91998  Biso   1.000  H
  H177     1.0000 0.54920  0.64904  0.92618  Biso   1.000  H
  O36      1.0000 0.14025  0.78017  0.02847  Biso   1.000  O
  C180     1.0000 0.18392  0.83196  0.08630  Biso   1.000  C
  H178     1.0000 0.22439  0.85517  0.08068  Biso   1.000  H
  H179     1.0000 0.16202  0.89585  0.09590  Biso   1.000  H
  H180     1.0000 0.19452  0.77950  0.12112  Biso   1.000  H
  C181     1.0000 0.43619  0.21557  0.26150  Biso   1.000  C
  C182     1.0000 0.45640  0.14800  0.22572  Biso   1.000  C
  H181     1.0000 0.46269  0.22668  0.30429  Biso   1.000  H
  H182     1.0000 0.39523  0.25223  0.24392  Biso   1.000  H
  C183     1.0000 0.52166  0.08686  0.25122  Biso   1.000  C
  H183     1.0000 0.42919  0.13789  0.18288  Biso   1.000  H
  H184     1.0000 0.54838  0.11451  0.29349  Biso   1.000  H
  H185     1.0000 0.51391  0.00760  0.25439  Biso   1.000  H
  O37      1.0000 0.55582  0.10607  0.20670  Biso   1.000  O
  C184     1.0000 0.62129  0.06423  0.22865  Biso   1.000  C
  C185     1.0000 0.67207  0.11952  0.27759  Biso   1.000  C
  C186     1.0000 0.63589  0.96960  0.20128  Biso   1.000  C
  C187     1.0000 0.73539  0.07183  0.29963  Biso   1.000  C
  O38      1.0000 0.66138  0.21690  0.30602  Biso   1.000  O
  C188     1.0000 0.70058  0.92391  0.22135  Biso   1.000  C
  H186     1.0000 0.60170  0.93469  0.16828  Biso   1.000  H
  H187     1.0000 0.76890  0.10582  0.33368  Biso   1.000  H
  C189     1.0000 0.75121  0.97570  0.27327  Biso   1.000  C
  C190     1.0000 0.63062  0.30711  0.26169  Biso   1.000  C
  C191     1.0000 0.71308  0.82511  0.18461  Biso   1.000  C
  C192     1.0000 0.82303  0.93318  0.30093  Biso   1.000  C
  H188     1.0000 0.58232  0.30460  0.25002  Biso   1.000  H
  H189     1.0000 0.64079  0.29892  0.22298  Biso   1.000  H
  C193     1.0000 0.65704  0.41594  0.29329  Biso   1.000  C
  H190     1.0000 0.67392  0.77717  0.17112  Biso   1.000  H
  H191     1.0000 0.75048  0.78209  0.21280  Biso   1.000  H
  C194     1.0000 0.72826  0.86144  0.12578  Biso   1.000  C
  H192     1.0000 0.83912  0.93911  0.34742  Biso   1.000  H
  H193     1.0000 0.82379  0.85492  0.29008  Biso   1.000  H
  C195     1.0000 0.86966  0.99791  0.27586  Biso   1.000  C
  H194     1.0000 0.62660  0.47482  0.27048  Biso   1.000  H
  H195     1.0000 0.65731  0.41418  0.33681  Biso   1.000  H
  O39      1.0000 0.72261  0.44308  0.29536  Biso   1.000  O
  C196     1.0000 0.79342  0.87213  0.12511  Biso   1.000  C
  C197     1.0000 0.67429  0.88616  0.06945  Biso   1.000  C
  C198     1.0000 0.90002  0.09421  0.30861  Biso   1.000  C
  C199     1.0000 0.88158  0.96601  0.22020  Biso   1.000  C
  C200     1.0000 0.72977  0.48543  0.24061  Biso   1.000  C
  C201     1.0000 0.85580  0.85751  0.18418  Biso   1.000  C
  C202     1.0000 0.80100  0.90128  0.06748  Biso   1.000  C
  C203     1.0000 0.68300  0.92049  0.01393  Biso   1.000  C
  H196     1.0000 0.63099  0.87931  0.06949  Biso   1.000  H
  H197     1.0000 0.89340  0.11342  0.34631  Biso   1.000  H
  C204     1.0000 0.93997  0.16253  0.28671  Biso   1.000  C
  C205     1.0000 0.91955  0.03784  0.19739  Biso   1.000  C
  C206     1.0000 0.67931  0.50472  0.18264  Biso   1.000  C
  C207     1.0000 0.79642  0.51173  0.24743  Biso   1.000  C
  H198     1.0000 0.89078  0.82519  0.17150  Biso   1.000  H
  H199     1.0000 0.84628  0.80531  0.21299  Biso   1.000  H
  H200     1.0000 0.84408  0.90654  0.06671  Biso   1.000  H
  C208     1.0000 0.74760  0.92283  0.01191  Biso   1.000  C
  O40      1.0000 0.63090  0.95114  0.95923  Biso   1.000  O
  C209     1.0000 0.94785  0.13514  0.22875  Biso   1.000  C
  O41      1.0000 0.97328  0.25683  0.31711  Biso   1.000  O
  H201     1.0000 0.92601  0.01929  0.15949  Biso   1.000  H
  C210     1.0000 0.69148  0.54539  0.12876  Biso   1.000  C
  H202     1.0000 0.63529  0.49019  0.17890  Biso   1.000  H
  C211     1.0000 0.80863  0.55074  0.19465  Biso   1.000  C
  O42      1.0000 0.84322  0.49720  0.30698  Biso   1.000  O
  O43      1.0000 0.75561  0.95507  0.95591  Biso   1.000  O
  C212     1.0000 0.58289  0.02447  0.97070  Biso   1.000  C
  O44      1.0000 0.98636  0.19828  0.20339  Biso   1.000  O
  C213     1.0000 0.98339  0.27178  0.38339  Biso   1.000  C
  C214     1.0000 0.63208  0.56694  0.06752  Biso   1.000  C
  C215     1.0000 0.75748  0.56644  0.13486  Biso   1.000  C
  H203     1.0000 0.85251  0.56719  0.19878  Biso   1.000  H
  C216     1.0000 0.90800  0.54055  0.31668  Biso   1.000  C
  C217     1.0000 0.79160  0.88457  0.92969  Biso   1.000  C
  H204     1.0000 0.60480  0.07108  0.00788  Biso   1.000  H
  H205     1.0000 0.54809  0.98137  0.97848  Biso   1.000  H
  C218     1.0000 0.55350  0.09438  0.91279  Biso   1.000  C
  C219     1.0000 0.96809  0.31513  0.19119  Biso   1.000  C
  H206     1.0000 0.94091  0.26351  0.38939  Biso   1.000  H
  H207     1.0000 0.99960  0.34703  0.39621  Biso   1.000  H
  C220     1.0000 0.03162  0.19168  0.42450  Biso   1.000  C
  C221     1.0000 0.60493  0.46313  0.02785  Biso   1.000  C
  H208     1.0000 0.59651  0.60077  0.07862  Biso   1.000  H
  H209     1.0000 0.64532  0.61998  0.04140  Biso   1.000  H
  C222     1.0000 0.77756  0.59968  0.07809  Biso   1.000  C
  H210     1.0000 0.92808  0.49837  0.29171  Biso   1.000  H
  H211     1.0000 0.93539  0.53512  0.36139  Biso   1.000  H
  H212     1.0000 0.90419  0.61739  0.30362  Biso   1.000  H
  H213     1.0000 0.83050  0.85451  0.96350  Biso   1.000  H
  H214     1.0000 0.80670  0.92592  0.90001  Biso   1.000  H
  C223     1.0000 0.74689  0.79454  0.89622  Biso   1.000  C
  H215     1.0000 0.58931  0.12762  0.90169  Biso   1.000  H
  H216     1.0000 0.52718  0.04769  0.87720  Biso   1.000  H
  O45      1.0000 0.51269  0.17949  0.92201  Biso   1.000  O
  H217     1.0000 0.99229  0.35981  0.22860  Biso   1.000  H
  H218     1.0000 0.92038  0.32473  0.18159  Biso   1.000  H
  C224     1.0000 0.98616  0.35071  0.13457  Biso   1.000  C
  H219     1.0000 0.07012  0.17723  0.41562  Biso   1.000  H
  C225     1.0000 0.02399  0.13856  0.47339  Biso   1.000  C
  C226     1.0000 0.55610  0.40149  0.04265  Biso   1.000  C
  C227     1.0000 0.62473  0.42579  0.97724  Biso   1.000  C
  H220     1.0000 0.74100  0.64044  0.04692  Biso   1.000  H
  H221     1.0000 0.81622  0.64871  0.09288  Biso   1.000  H
  C228     1.0000 0.79416  0.49787  0.04620  Biso   1.000  C
  H222     1.0000 0.70800  0.82018  0.86442  Biso   1.000  H
  C229     1.0000 0.74922  0.68897  0.90068  Biso   1.000  C
  C230     1.0000 0.54637  0.27069  0.95836  Biso   1.000  C
  H223     1.0000 0.98639  0.43172  0.13270  Biso   1.000  H
  O46      1.0000 0.94090  0.30844  0.07526  Biso   1.000  O
  H224     1.0000 0.03112  0.32481  0.14081  Biso   1.000  H
  H225     1.0000 0.98613  0.15109  0.48362  Biso   1.000  H
  H226     1.0000 0.05672  0.08870  0.49760  Biso   1.000  H
  C231     1.0000 0.52747  0.30510  0.00888  Biso   1.000  C
  H227     1.0000 0.54268  0.42579  0.07569  Biso   1.000  H
  C232     1.0000 0.67749  0.48701  0.95769  Biso   1.000  C
  C233     1.0000 0.59416  0.33158  0.94319  Biso   1.000  C
  C234     1.0000 0.85848  0.45227  0.07492  Biso   1.000  C
  C235     1.0000 0.74889  0.44567  0.99160  Biso   1.000  C
  H228     1.0000 0.78602  0.65447  0.93089  Biso   1.000  H
  H229     1.0000 0.71418  0.64612  0.87369  Biso   1.000  H
  C236     1.0000 0.87899  0.35789  0.05033  Biso   1.000  C
  O47      1.0000 0.48000  0.24255  0.02171  Biso   1.000  O
  H230     1.0000 0.66608  0.47891  0.91168  Biso   1.000  H
  H231     1.0000 0.67572  0.56602  0.96672  Biso   1.000  H
  H232     1.0000 0.60599  0.30819  0.90889  Biso   1.000  H
  H233     1.0000 0.88831  0.48618  0.11152  Biso   1.000  H
  C237     1.0000 0.76984  0.35137  0.96643  Biso   1.000  C
  C238     1.0000 0.83396  0.30811  0.99414  Biso   1.000  C
  C239     1.0000 0.46440  0.27412  0.07742  Biso   1.000  C
  H234     1.0000 0.73993  0.31705  0.93012  Biso   1.000  H
  O48      1.0000 0.85975  0.21983  0.97152  Biso   1.000  O
  H235     1.0000 0.50331  0.26434  0.11550  Biso   1.000  H
  H236     1.0000 0.42869  0.22801  0.08001  Biso   1.000  H
  H237     1.0000 0.45080  0.35104  0.07382  Biso   1.000  H
  C240     1.0000 0.81608  0.16813  0.91370  Biso   1.000  C
  H238     1.0000 0.77560  0.14483  0.91932  Biso   1.000  H
  H239     1.0000 0.83798  0.10423  0.90409  Biso   1.000  H
  H240     1.0000 0.80548  0.22050  0.87888  Biso   1.000  H
  Ne1      1.0000 0.25693  0.70077  0.36417  Biso   1.000  Ne
  He1      1.0000 0.32061  0.68257  0.59543  Biso   1.000  He
  He2      1.0000 0.10711  0.56214  0.44204  Biso   1.000  He
  He3      1.0000 0.42042  0.61298  0.40605  Biso   1.000  He
  He4      1.0000 0.41704  0.82430  0.35400  Biso   1.000  He
  He5      1.0000 0.10926  0.91206  0.27318  Biso   1.000  He
  He6      1.0000 0.18562  0.77517  0.18023  Biso   1.000  He
  Ar1      1.0000 0.25985  0.70958  0.37617  Biso   1.000  Ar
  Ne2      1.0000 0.74307  0.20076  0.13583  Biso   1.000  Ne
  He7      1.0000 0.80370  0.27636  0.28185  Biso   1.000  He
  He8      1.0000 0.87210  0.42546  0.17503  Biso   1.000  He
  He9      1.0000 0.58435  0.31905  0.14482  Biso   1.000  He
  He10     1.0000 0.57549  0.10557  0.09197  Biso   1.000  He
  He11     1.0000 0.86066  0.10781  0.07116  Biso   1.000  He
  He12     1.0000 0.69740  0.14947  0.96783  Biso   1.000  He
  Ar2      1.0000 0.74012  0.20959  0.12384  Biso   1.000  Ar
  Ne3      1.0000 0.74307  0.29924  0.63583  Biso   1.000  Ne
  He13     1.0000 0.80594  0.22165  0.78501  Biso   1.000  He
  He14     1.0000 0.86738  0.08109  0.67339  Biso   1.000  He
  He15     1.0000 0.58302  0.17597  0.64594  Biso   1.000  He
  He16     1.0000 0.57377  0.39757  0.59118  Biso   1.000  He
  He17     1.0000 0.88950  0.43502  0.55881  Biso   1.000  He
  He18     1.0000 0.69826  0.35069  0.47068  Biso   1.000  He
  Ar3      1.0000 0.74012  0.29050  0.62343  Biso   1.000  Ar
  Ne4      1.0000 0.25693  0.79926  0.86417  Biso   1.000  Ne
  He19     1.0000 0.32024  0.81772  0.09414  Biso   1.000  He
  He20     1.0000 0.11065  0.93493  0.94117  Biso   1.000  He
  He21     1.0000 0.39658  0.85737  0.89842  Biso   1.000  He
  He22     1.0000 0.40929  0.70619  0.86045  Biso   1.000  He
  He23     1.0000 0.11789  0.56137  0.82139  Biso   1.000  He
  He24     1.0000 0.19712  0.72442  0.71923  Biso   1.000  He
  Ar4      1.0000 0.25986  0.79040  0.87617  Biso   1.000  Ar
