data_image0
_cell_length_a       11.809
_cell_length_b       12.997
_cell_length_c       17.881
_cell_angle_alpha    89.53
_cell_angle_beta     89.76
_cell_angle_gamma    88.4

_symmetry_space_group_name_H-M    "P 1"
_symmetry_int_tables_number       1

loop_
  _symmetry_equiv_pos_as_xyz
  'x, y, z'

loop_
  _atom_site_label
  _atom_site_occupancy
  _atom_site_fract_x
  _atom_site_fract_y
  _atom_site_fract_z
  _atom_site_thermal_displace_type
  _atom_site_B_iso_or_equiv
  _atom_site_type_symbol
  O1       1.0000 0.53776  0.55697  0.58003  Biso   1.000  O
  C1       1.0000 0.63286  0.57244  0.53142  Biso   1.000  C
  C2       1.0000 0.50088  0.64103  0.62113  Biso   1.000  C
  C3       1.0000 0.69416  0.47035  0.51985  Biso   1.000  C
  H1       1.0000 0.60715  0.60037  0.48377  Biso   1.000  H
  H2       1.0000 0.68373  0.62100  0.55357  Biso   1.000  H
  C4       1.0000 0.48019  0.62610  0.69658  Biso   1.000  C
  C5       1.0000 0.47560  0.73706  0.58903  Biso   1.000  C
  O2       1.0000 0.75593  0.43408  0.58405  Biso   1.000  O
  H3       1.0000 0.74639  0.47690  0.47807  Biso   1.000  H
  H4       1.0000 0.63924  0.41947  0.50659  Biso   1.000  H
  C6       1.0000 0.43894  0.70525  0.74294  Biso   1.000  C
  H5       1.0000 0.49408  0.56121  0.71727  Biso   1.000  H
  C7       1.0000 0.44125  0.81775  0.63523  Biso   1.000  C
  O3       1.0000 0.48486  0.74638  0.51230  Biso   1.000  O
  C8       1.0000 0.85232  0.48428  0.60296  Biso   1.000  C
  C9       1.0000 0.41087  0.67887  0.82359  Biso   1.000  C
  C10      1.0000 0.42458  0.80404  0.71196  Biso   1.000  C
  H6       1.0000 0.42896  0.88279  0.61431  Biso   1.000  H
  C11      1.0000 0.42165  0.82903  0.47885  Biso   1.000  C
  C12      1.0000 0.90227  0.45428  0.67057  Biso   1.000  C
  C13      1.0000 0.90364  0.55934  0.56039  Biso   1.000  C
  C14      1.0000 0.51283  0.67353  0.87510  Biso   1.000  C
  H7       1.0000 0.35709  0.73016  0.84249  Biso   1.000  H
  H8       1.0000 0.37436  0.61297  0.82499  Biso   1.000  H
  C15      1.0000 0.39464  0.89797  0.75838  Biso   1.000  C
  H9       1.0000 0.45466  0.89308  0.49177  Biso   1.000  H
  H10      1.0000 0.42256  0.82147  0.42550  Biso   1.000  H
  H11      1.0000 0.34484  0.82830  0.49669  Biso   1.000  H
  C16      1.0000 0.99961  0.50052  0.69373  Biso   1.000  C
  O4       1.0000 0.84972  0.37611  0.70939  Biso   1.000  O
  H12      1.0000 0.87193  0.57817  0.51459  Biso   1.000  H
  C17      1.0000 0.00175  0.60796  0.58388  Biso   1.000  C
  C18      1.0000 0.55038  0.75766  0.91598  Biso   1.000  C
  C19      1.0000 0.57199  0.57963  0.88108  Biso   1.000  C
  H13      1.0000 0.35142  0.94680  0.72790  Biso   1.000  H
  H14      1.0000 0.34699  0.87757  0.79988  Biso   1.000  H
  C20      1.0000 0.49817  0.95066  0.78886  Biso   1.000  C
  C21      1.0000 0.05093  0.57803  0.65184  Biso   1.000  C
  H15      1.0000 0.03232  0.47946  0.73869  Biso   1.000  H
  C22      1.0000 0.85293  0.37931  0.78880  Biso   1.000  C
  C23      1.0000 0.04783  0.69226  0.53372  Biso   1.000  C
  C24      1.0000 0.48875  0.86156  0.91749  Biso   1.000  C
  C25      1.0000 0.63565  0.74267  0.96319  Biso   1.000  C
  C26      1.0000 0.66725  0.74791  0.94848  Biso   1.000  C
  C27      1.0000 0.66763  0.56676  0.92426  Biso   1.000  C
  H16      1.0000 0.54594  0.52358  0.85491  Biso   1.000  H
  C28      1.0000 0.53755  0.93822  0.86207  Biso   1.000  C
  C29      1.0000 0.55762  0.01554  0.74076  Biso   1.000  C
  C30      1.0000 0.15532  0.62716  0.68394  Biso   1.000  C
  H17      1.0000 0.84464  0.45041  0.80446  Biso   1.000  H
  H18      1.0000 0.78881  0.34260  0.80860  Biso   1.000  H
  C31      1.0000 0.95664  0.33476  0.82113  Biso   1.000  C
  C32      1.0000 0.99084  0.79695  0.54680  Biso   1.000  C
  H19      1.0000 0.03748  0.67329  0.48187  Biso   1.000  H
  H20      1.0000 0.12849  0.69732  0.54239  Biso   1.000  H
  H21      1.0000 0.40951  0.85229  0.90597  Biso   1.000  H
  H22      1.0000 0.49299  0.88948  0.96749  Biso   1.000  H
  H23      1.0000 0.65455  0.79628  0.99450  Biso   1.000  H
  C33      1.0000 0.69575  0.65425  0.96811  Biso   1.000  C
  C34      1.0000 0.72693  0.64906  0.95021  Biso   1.000  C
  H24      1.0000 0.70143  0.80558  0.96760  Biso   1.000  H
  O5       1.0000 0.72160  0.47094  0.93058  Biso   1.000  O
  C35      1.0000 0.62825  0.99653  0.88589  Biso   1.000  C
  H25      1.0000 0.53402  0.02240  0.69138  Biso   1.000  H
  C36      1.0000 0.64956  0.06948  0.76341  Biso   1.000  C
  H26      1.0000 0.19968  0.65540  0.64328  Biso   1.000  H
  H27      1.0000 0.20157  0.57462  0.70877  Biso   1.000  H
  C37      1.0000 0.12636  0.71206  0.73908  Biso   1.000  C
  C38      1.0000 0.03936  0.29928  0.84915  Biso   1.000  C
  C39      1.0000 0.89162  0.82095  0.50687  Biso   1.000  C
  C40      1.0000 0.03274  0.87030  0.59535  Biso   1.000  C
  O6       1.0000 0.83004  0.64585  0.98326  Biso   1.000  O
  O7       1.0000 0.78606  0.64229  0.01883  Biso   1.000  O
  C41      1.0000 0.69310  0.41787  0.99596  Biso   1.000  C
  H28      1.0000 0.65236  0.99006  0.93517  Biso   1.000  H
  C42      1.0000 0.68323  0.06348  0.83847  Biso   1.000  C
  O8       1.0000 0.69997  0.13432  0.71241  Biso   1.000  O
  C43      1.0000 0.12057  0.81642  0.71979  Biso   1.000  C
  C44      1.0000 0.10357  0.68353  0.81319  Biso   1.000  C
  H29      1.0000 0.10444  0.27132  0.87130  Biso   1.000  H
  H30      1.0000 0.86393  0.77259  0.47421  Biso   1.000  H
  C45      1.0000 0.83375  0.91400  0.51442  Biso   1.000  C
  C46      1.0000 0.97298  0.96435  0.60301  Biso   1.000  C
  C47      1.0000 0.14045  0.85548  0.64065  Biso   1.000  C
  C48      1.0000 0.91924  0.59657  0.93656  Biso   1.000  C
  H31      1.0000 0.88598  0.59016  0.93796  Biso   1.000  H
  C49      1.0000 0.89321  0.63247  0.98209  Biso   1.000  C
  H32      1.0000 0.61452  0.40118  0.99467  Biso   1.000  H
  H33      1.0000 0.73851  0.35571  0.99971  Biso   1.000  H
  H34      1.0000 0.70693  0.46042  0.03846  Biso   1.000  H
  O9       1.0000 0.76855  0.12660  0.85966  Biso   1.000  O
  C50      1.0000 0.82047  0.12004  0.70200  Biso   1.000  C
  C51      1.0000 0.09512  0.88892  0.77549  Biso   1.000  C
  C52      1.0000 0.07605  0.75482  0.86721  Biso   1.000  C
  H35      1.0000 0.10714  0.61411  0.82627  Biso   1.000  H
  C53      1.0000 0.87437  0.98733  0.56448  Biso   1.000  C
  O10      1.0000 0.73874  0.94438  0.47443  Biso   1.000  O
  H36      1.0000 0.00074  0.01317  0.63539  Biso   1.000  H
  H37      1.0000 0.17832  0.92057  0.64311  Biso   1.000  H
  H38      1.0000 0.19063  0.80697  0.61498  Biso   1.000  H
  C54      1.0000 0.03194  0.63022  0.96257  Biso   1.000  C
  H39      1.0000 0.91515  0.52232  0.94059  Biso   1.000  H
  H40      1.0000 0.90839  0.61608  0.88461  Biso   1.000  H
  C55      1.0000 0.93593  0.73501  0.95977  Biso   1.000  C
  H41      1.0000 0.94739  0.59846  0.01531  Biso   1.000  H
  C56      1.0000 0.79161  0.13150  0.93774  Biso   1.000  C
  C57      1.0000 0.84760  0.15186  0.62270  Biso   1.000  C
  H42      1.0000 0.86105  0.16190  0.73707  Biso   1.000  H
  H43      1.0000 0.84286  0.04852  0.71028  Biso   1.000  H
  H44      1.0000 0.09298  0.95857  0.76296  Biso   1.000  H
  C58      1.0000 0.07312  0.85947  0.84881  Biso   1.000  C
  O11      1.0000 0.05442  0.72714  0.94070  Biso   1.000  O
  O12      1.0000 0.81237  0.07788  0.56895  Biso   1.000  O
  C59      1.0000 0.69791  0.87309  0.42102  Biso   1.000  C
  H45      1.0000 0.09032  0.58356  0.94300  Biso   1.000  H
  H46      1.0000 0.03452  0.62608  0.01671  Biso   1.000  H
  H47      1.0000 0.89339  0.76127  0.91710  Biso   1.000  H
  H48      1.0000 0.92497  0.78289  0.00066  Biso   1.000  H
  H49      1.0000 0.81810  0.06518  0.95541  Biso   1.000  H
  H50      1.0000 0.84854  0.18128  0.94641  Biso   1.000  H
  H51      1.0000 0.72351  0.15129  0.96419  Biso   1.000  H
  H52      1.0000 0.92866  0.16061  0.61789  Biso   1.000  H
  H53      1.0000 0.81025  0.21772  0.61202  Biso   1.000  H
  O13      1.0000 0.04745  0.92509  0.90754  Biso   1.000  O
  H54      1.0000 0.68579  0.80777  0.44597  Biso   1.000  H
  H55      1.0000 0.62527  0.89846  0.40251  Biso   1.000  H
  C60      1.0000 0.77403  0.85601  0.35777  Biso   1.000  C
  C61      1.0000 0.06268  0.03236  0.89618  Biso   1.000  C
  C62      1.0000 0.83336  0.83774  0.30553  Biso   1.000  C
  H56      1.0000 0.02018  0.05486  0.85250  Biso   1.000  H
  H57      1.0000 0.03222  0.06952  0.93897  Biso   1.000  H
  C63      1.0000 0.18161  0.05826  0.88595  Biso   1.000  C
  H58      1.0000 0.87970  0.82334  0.26459  Biso   1.000  H
  C64      1.0000 0.27680  0.08183  0.87762  Biso   1.000  C
  H59      1.0000 0.35172  0.10038  0.87107  Biso   1.000  H
  O14      1.0000 0.46217  0.44299  0.41996  Biso   1.000  O
  C65      1.0000 0.49906  0.35901  0.37885  Biso   1.000  C
  C66      1.0000 0.36707  0.42751  0.46851  Biso   1.000  C
  C67      1.0000 0.51982  0.37386  0.30341  Biso   1.000  C
  C68      1.0000 0.52441  0.26298  0.41096  Biso   1.000  C
  C69      1.0000 0.30585  0.52968  0.48014  Biso   1.000  C
  H60      1.0000 0.39278  0.39958  0.51621  Biso   1.000  H
  H61      1.0000 0.31629  0.37896  0.44641  Biso   1.000  H
  C70      1.0000 0.56099  0.29478  0.25704  Biso   1.000  C
  H62      1.0000 0.50593  0.43882  0.28271  Biso   1.000  H
  C71      1.0000 0.55877  0.18229  0.36476  Biso   1.000  C
  O15      1.0000 0.51515  0.25358  0.48769  Biso   1.000  O
  O16      1.0000 0.24401  0.56588  0.41593  Biso   1.000  O
  H63      1.0000 0.25363  0.52306  0.52192  Biso   1.000  H
  H64      1.0000 0.36069  0.58049  0.49339  Biso   1.000  H
  C72      1.0000 0.58906  0.32108  0.17640  Biso   1.000  C
  C73      1.0000 0.57543  0.19599  0.28803  Biso   1.000  C
  H65      1.0000 0.57097  0.11717  0.38568  Biso   1.000  H
  C74      1.0000 0.57836  0.17100  0.52113  Biso   1.000  C
  C75      1.0000 0.14761  0.51575  0.39703  Biso   1.000  C
  C76      1.0000 0.48719  0.32643  0.12489  Biso   1.000  C
  H66      1.0000 0.64292  0.26980  0.15749  Biso   1.000  H
  H67      1.0000 0.62558  0.38699  0.17500  Biso   1.000  H
  C77      1.0000 0.60529  0.10199  0.24161  Biso   1.000  C
  H68      1.0000 0.54536  0.10687  0.50821  Biso   1.000  H
  H69      1.0000 0.57746  0.17849  0.57449  Biso   1.000  H
  H70      1.0000 0.65518  0.17166  0.50329  Biso   1.000  H
  C78      1.0000 0.09775  0.54567  0.32941  Biso   1.000  C
  C79      1.0000 0.09638  0.44069  0.43954  Biso   1.000  C
  C80      1.0000 0.44955  0.24229  0.08400  Biso   1.000  C
  C81      1.0000 0.42794  0.42032  0.11890  Biso   1.000  C
  H71      1.0000 0.64860  0.05316  0.27209  Biso   1.000  H
  H72      1.0000 0.65303  0.12239  0.20011  Biso   1.000  H
  C82      1.0000 0.50185  0.04930  0.21113  Biso   1.000  C
  C83      1.0000 0.00032  0.49944  0.30626  Biso   1.000  C
  O17      1.0000 0.15021  0.62385  0.29060  Biso   1.000  O
  H73      1.0000 0.12809  0.42178  0.48540  Biso   1.000  H
  C84      1.0000 0.99827  0.39200  0.41610  Biso   1.000  C
  C85      1.0000 0.51118  0.13848  0.08249  Biso   1.000  C
  C86      1.0000 0.36429  0.25729  0.03680  Biso   1.000  C
  C87      1.0000 0.33268  0.25212  0.05151  Biso   1.000  C
  C88      1.0000 0.33238  0.43320  0.07573  Biso   1.000  C
  H74      1.0000 0.45400  0.47637  0.14508  Biso   1.000  H
  C89      1.0000 0.46238  0.06173  0.13792  Biso   1.000  C
  C90      1.0000 0.44231  0.98441  0.25922  Biso   1.000  C
  C91      1.0000 0.94901  0.42193  0.34815  Biso   1.000  C
  H75      1.0000 0.96761  0.52049  0.26129  Biso   1.000  H
  C92      1.0000 0.14709  0.62065  0.21118  Biso   1.000  C
  C93      1.0000 0.95219  0.30770  0.46627  Biso   1.000  C
  H76      1.0000 0.59051  0.14766  0.09401  Biso   1.000  H
  H77      1.0000 0.50703  0.11048  0.03249  Biso   1.000  H
  H78      1.0000 0.34539  0.20368  0.00548  Biso   1.000  H
  C94      1.0000 0.30419  0.34571  0.03188  Biso   1.000  C
  C95      1.0000 0.27301  0.35089  0.04978  Biso   1.000  C
  H79      1.0000 0.29850  0.19438  0.03238  Biso   1.000  H
  O18      1.0000 0.27842  0.52902  0.06941  Biso   1.000  O
  C96      1.0000 0.37168  0.00343  0.11409  Biso   1.000  C
  H80      1.0000 0.46592  0.97763  0.30861  Biso   1.000  H
  C97      1.0000 0.35037  0.93056  0.23657  Biso   1.000  C
  C98      1.0000 0.84470  0.37279  0.31605  Biso   1.000  C
  H81      1.0000 0.15530  0.54963  0.19552  Biso   1.000  H
  H82      1.0000 0.21112  0.65743  0.19138  Biso   1.000  H
  C99      1.0000 0.04329  0.66519  0.17886  Biso   1.000  C
  C100     1.0000 0.00918  0.20308  0.45313  Biso   1.000  C
  H83      1.0000 0.96246  0.32667  0.51811  Biso   1.000  H
  H84      1.0000 0.87144  0.30271  0.45760  Biso   1.000  H
  O19      1.0000 0.16989  0.35411  0.01672  Biso   1.000  O
  O20      1.0000 0.21395  0.35774  0.98115  Biso   1.000  O
  C101     1.0000 0.30684  0.58209  0.00403  Biso   1.000  C
  H85      1.0000 0.34758  0.00990  0.06482  Biso   1.000  H
  C102     1.0000 0.31670  0.93647  0.16152  Biso   1.000  C
  O21      1.0000 0.30004  0.86564  0.28758  Biso   1.000  O
  C103     1.0000 0.87357  0.28797  0.26090  Biso   1.000  C
  H86      1.0000 0.80026  0.34463  0.35671  Biso   1.000  H
  H87      1.0000 0.79844  0.42541  0.29122  Biso   1.000  H
  C104     1.0000 0.96066  0.70068  0.15084  Biso   1.000  C
  C105     1.0000 0.10832  0.17901  0.49311  Biso   1.000  C
  C106     1.0000 0.96720  0.12966  0.40464  Biso   1.000  C
  H88      1.0000 0.11404  0.40979  0.06202  Biso   1.000  H
  C107     1.0000 0.08069  0.40339  0.06342  Biso   1.000  C
  C108     1.0000 0.10672  0.36749  0.01790  Biso   1.000  C
  H89      1.0000 0.38541  0.59877  0.00531  Biso   1.000  H
  H90      1.0000 0.26142  0.64432  0.00028  Biso   1.000  H
  H91      1.0000 0.29309  0.53953  0.96152  Biso   1.000  H
  O22      1.0000 0.23138  0.87344  0.14032  Biso   1.000  O
  C109     1.0000 0.17946  0.87999  0.29798  Biso   1.000  C
  C110     1.0000 0.89636  0.31650  0.18680  Biso   1.000  C
  C111     1.0000 0.87945  0.18361  0.28020  Biso   1.000  C
  H92      1.0000 0.89558  0.72871  0.12869  Biso   1.000  H
  C112     1.0000 0.16618  0.08604  0.48556  Biso   1.000  C
  H93      1.0000 0.13609  0.22737  0.52578  Biso   1.000  H
  C113     1.0000 0.02704  0.03561  0.39697  Biso   1.000  C
  C114     1.0000 0.85957  0.14448  0.35933  Biso   1.000  C
  H94      1.0000 0.08487  0.47771  0.05940  Biso   1.000  H
  H95      1.0000 0.09163  0.38388  0.11538  Biso   1.000  H
  C115     1.0000 0.96799  0.36981  0.03742  Biso   1.000  C
  C116     1.0000 0.06400  0.26502  0.04021  Biso   1.000  C
  H96      1.0000 0.05254  0.40150  0.98468  Biso   1.000  H
  C117     1.0000 0.20840  0.86853  0.06219  Biso   1.000  C
  C118     1.0000 0.15233  0.84817  0.37729  Biso   1.000  C
  H97      1.0000 0.13897  0.83813  0.26292  Biso   1.000  H
  H98      1.0000 0.15716  0.95152  0.28970  Biso   1.000  H
  C119     1.0000 0.92396  0.24514  0.13277  Biso   1.000  C
  H99      1.0000 0.89279  0.38592  0.17371  Biso   1.000  H
  C120     1.0000 0.90481  0.11103  0.22449  Biso   1.000  C
  C121     1.0000 0.12557  0.01262  0.43551  Biso   1.000  C
  O23      1.0000 0.26120  0.05557  0.52555  Biso   1.000  O
  H100     1.0000 0.99928  0.98678  0.36459  Biso   1.000  H
  H101     1.0000 0.82170  0.07939  0.35687  Biso   1.000  H
  H102     1.0000 0.80939  0.19299  0.38501  Biso   1.000  H
  H103     1.0000 0.96541  0.37396  0.98328  Biso   1.000  H
  O24      1.0000 0.94559  0.27289  0.05928  Biso   1.000  O
  H104     1.0000 0.90961  0.41639  0.05699  Biso   1.000  H
  H105     1.0000 0.10663  0.23869  0.08288  Biso   1.000  H
  H106     1.0000 0.07505  0.21714  0.99927  Biso   1.000  H
  H107     1.0000 0.18184  0.93477  0.04457  Biso   1.000  H
  H108     1.0000 0.15148  0.81868  0.05358  Biso   1.000  H
  H109     1.0000 0.27650  0.84866  0.03579  Biso   1.000  H
  O25      1.0000 0.18765  0.92208  0.43103  Biso   1.000  O
  H110     1.0000 0.07136  0.83942  0.38210  Biso   1.000  H
  H111     1.0000 0.18977  0.78232  0.38797  Biso   1.000  H
  C122     1.0000 0.92689  0.14048  0.15117  Biso   1.000  C
  H112     1.0000 0.90695  0.04139  0.23702  Biso   1.000  H
  C123     1.0000 0.30211  0.12687  0.57896  Biso   1.000  C
  O26      1.0000 0.95249  0.07486  0.09245  Biso   1.000  O
  H113     1.0000 0.31415  0.19219  0.55402  Biso   1.000  H
  H114     1.0000 0.37475  0.10149  0.59747  Biso   1.000  H
  C124     1.0000 0.22599  0.14394  0.64222  Biso   1.000  C
  C125     1.0000 0.93733  0.96767  0.10380  Biso   1.000  C
  C126     1.0000 0.16666  0.16230  0.69445  Biso   1.000  C
  H115     1.0000 0.97975  0.94509  0.14748  Biso   1.000  H
  H116     1.0000 0.96779  0.93051  0.06102  Biso   1.000  H
  C127     1.0000 0.81833  0.94170  0.11404  Biso   1.000  C
  H117     1.0000 0.12023  0.17670  0.73539  Biso   1.000  H
  C128     1.0000 0.72314  0.91820  0.12237  Biso   1.000  C
  H118     1.0000 0.64830  0.89958  0.12891  Biso   1.000  H
