data_image0
_cell_length_a       12.416
_cell_length_b       14.214
_cell_length_c       18.329
_cell_angle_alpha    79.01
_cell_angle_beta     78.44
_cell_angle_gamma    75.8

_symmetry_space_group_name_H-M    "P 1"
_symmetry_int_tables_number       1

loop_
  _symmetry_equiv_pos_as_xyz
  'x, y, z'

loop_
  _atom_site_label
  _atom_site_occupancy
  _atom_site_fract_x
  _atom_site_fract_y
  _atom_site_fract_z
  _atom_site_thermal_displace_type
  _atom_site_B_iso_or_equiv
  _atom_site_type_symbol
  C1       1.0000 0.57660  0.45327  0.57240  Biso   1.000  C
  C2       1.0000 0.49807  0.39447  0.58631  Biso   1.000  C
  C3       1.0000 0.67514  0.43403  0.52194  Biso   1.000  C
  H1       1.0000 0.56226  0.50683  0.59780  Biso   1.000  H
  C4       1.0000 0.51658  0.31453  0.54762  Biso   1.000  C
  O1       1.0000 0.39907  0.40996  0.63699  Biso   1.000  O
  C5       1.0000 0.69565  0.35278  0.48483  Biso   1.000  C
  C6       1.0000 0.76018  0.49884  0.50809  Biso   1.000  C
  C7       1.0000 0.43293  0.24896  0.56130  Biso   1.000  C
  C8       1.0000 0.61617  0.29575  0.49671  Biso   1.000  C
  C9       1.0000 0.38118  0.48749  0.68024  Biso   1.000  C
  O2       1.0000 0.79580  0.33629  0.43555  Biso   1.000  O
  H2       1.0000 0.72090  0.56515  0.51529  Biso   1.000  H
  H3       1.0000 0.79816  0.50077  0.45627  Biso   1.000  H
  C10      1.0000 0.84674  0.46229  0.56029  Biso   1.000  C
  H4       1.0000 0.43426  0.22500  0.51501  Biso   1.000  H
  H5       1.0000 0.35790  0.28693  0.57578  Biso   1.000  H
  C11      1.0000 0.45903  0.16267  0.62224  Biso   1.000  C
  H6       1.0000 0.62965  0.24346  0.47002  Biso   1.000  H
  C12      1.0000 0.26782  0.49052  0.73003  Biso   1.000  C
  H7       1.0000 0.44001  0.47533  0.71071  Biso   1.000  H
  H8       1.0000 0.38181  0.54947  0.64730  Biso   1.000  H
  C13      1.0000 0.82372  0.24906  0.40300  Biso   1.000  C
  C14      1.0000 0.94750  0.39773  0.53962  Biso   1.000  C
  C15      1.0000 0.82598  0.48999  0.63221  Biso   1.000  C
  C16      1.0000 0.53544  0.07629  0.60630  Biso   1.000  C
  C17      1.0000 0.41244  0.16913  0.69736  Biso   1.000  C
  C18      1.0000 0.23981  0.56732  0.78229  Biso   1.000  C
  H9       1.0000 0.20996  0.50434  0.69849  Biso   1.000  H
  H10      1.0000 0.26709  0.42658  0.75999  Biso   1.000  H
  H11      1.0000 0.82615  0.19351  0.44208  Biso   1.000  H
  H12      1.0000 0.76801  0.24998  0.37321  Biso   1.000  H
  H13      1.0000 0.89609  0.24451  0.37152  Biso   1.000  H
  H14      1.0000 0.96324  0.37896  0.49198  Biso   1.000  H
  C19      1.0000 0.02459  0.36107  0.58828  Biso   1.000  C
  O3       1.0000 0.72333  0.55278  0.65006  Biso   1.000  O
  C20      1.0000 0.90397  0.45463  0.68013  Biso   1.000  C
  O4       1.0000 0.57868  0.07207  0.53084  Biso   1.000  O
  C21      1.0000 0.56387  0.00100  0.66363  Biso   1.000  C
  H15      1.0000 0.36117  0.22608  0.70908  Biso   1.000  H
  C22      1.0000 0.43994  0.09385  0.75509  Biso   1.000  C
  C23      1.0000 0.12246  0.57302  0.82807  Biso   1.000  C
  H16      1.0000 0.29458  0.55128  0.81630  Biso   1.000  H
  H17      1.0000 0.24471  0.63088  0.75278  Biso   1.000  H
  O5       1.0000 0.12595  0.29463  0.57088  Biso   1.000  O
  C24      1.0000 0.00486  0.38792  0.65969  Biso   1.000  C
  C25      1.0000 0.70017  0.58766  0.72085  Biso   1.000  C
  H18      1.0000 0.88956  0.47522  0.72699  Biso   1.000  H
  C26      1.0000 0.65063  0.98257  0.51225  Biso   1.000  C
  C27      1.0000 0.51820  0.00844  0.73825  Biso   1.000  C
  H19      1.0000 0.61494  0.94392  0.65192  Biso   1.000  H
  O6       1.0000 0.39613  0.09828  0.82982  Biso   1.000  O
  H20      1.0000 0.10821  0.62102  0.86119  Biso   1.000  H
  H21      1.0000 0.06780  0.59147  0.79468  Biso   1.000  H
  H22      1.0000 0.11721  0.51016  0.85730  Biso   1.000  H
  C28      1.0000 0.14892  0.26569  0.49868  Biso   1.000  C
  C29      1.0000 0.08378  0.34402  0.71612  Biso   1.000  C
  C30      1.0000 0.58272  0.65136  0.72766  Biso   1.000  C
  H23      1.0000 0.70467  0.53293  0.76168  Biso   1.000  H
  H24      1.0000 0.75436  0.62547  0.72310  Biso   1.000  H
  H25      1.0000 0.71773  0.97070  0.53410  Biso   1.000  H
  H26      1.0000 0.61259  0.92970  0.53151  Biso   1.000  H
  H27      1.0000 0.67038  0.98698  0.45847  Biso   1.000  H
  C31      1.0000 0.55588  0.92656  0.80076  Biso   1.000  C
  C32      1.0000 0.31806  0.18671  0.84643  Biso   1.000  C
  H28      1.0000 0.09126  0.23440  0.49350  Biso   1.000  H
  H29      1.0000 0.15052  0.32244  0.46089  Biso   1.000  H
  H30      1.0000 0.22062  0.22066  0.49288  Biso   1.000  H
  H31      1.0000 0.16034  0.32819  0.68959  Biso   1.000  H
  H32      1.0000 0.08040  0.39184  0.74827  Biso   1.000  H
  C33      1.0000 0.05347  0.25218  0.76416  Biso   1.000  C
  C34      1.0000 0.56630  0.73312  0.66200  Biso   1.000  C
  H33      1.0000 0.52909  0.61044  0.73138  Biso   1.000  H
  H34      1.0000 0.56682  0.67978  0.77379  Biso   1.000  H
  H35      1.0000 0.57227  0.86377  0.78291  Biso   1.000  H
  H36      1.0000 0.49541  0.92605  0.84339  Biso   1.000  H
  C35      1.0000 0.65944  0.94032  0.82560  Biso   1.000  C
  C36      1.0000 0.27091  0.17787  0.92899  Biso   1.000  C
  H37      1.0000 0.35570  0.24135  0.83230  Biso   1.000  H
  H38      1.0000 0.25727  0.19976  0.81737  Biso   1.000  H
  C37      1.0000 0.98037  0.25627  0.83207  Biso   1.000  C
  C38      1.0000 0.09632  0.16178  0.73971  Biso   1.000  C
  C39      1.0000 0.44867  0.79736  0.66977  Biso   1.000  C
  H39      1.0000 0.62045  0.77364  0.65777  Biso   1.000  H
  H40      1.0000 0.58122  0.70478  0.61587  Biso   1.000  H
  C40      1.0000 0.64839  0.99802  0.88090  Biso   1.000  C
  C41      1.0000 0.76736  0.89922  0.79169  Biso   1.000  C
  C42      1.0000 0.19240  0.27672  0.94617  Biso   1.000  C
  H41      1.0000 0.22889  0.12609  0.94268  Biso   1.000  H
  H42      1.0000 0.33169  0.16116  0.95828  Biso   1.000  H
  C43      1.0000 0.95055  0.17124  0.87420  Biso   1.000  C
  O7       1.0000 0.94052  0.34794  0.85443  Biso   1.000  O
  C44      1.0000 0.06643  0.07754  0.78077  Biso   1.000  C
  H43      1.0000 0.14640  0.15789  0.69472  Biso   1.000  H
  H44      1.0000 0.43564  0.82996  0.71308  Biso   1.000  H
  H45      1.0000 0.44152  0.84536  0.62550  Biso   1.000  H
  H46      1.0000 0.39449  0.75737  0.67580  Biso   1.000  H
  H47      1.0000 0.57690  0.02522  0.90450  Biso   1.000  H
  C45      1.0000 0.74275  0.01603  0.90174  Biso   1.000  C
  O8       1.0000 0.77361  0.84231  0.73718  Biso   1.000  O
  C46      1.0000 0.86145  0.91541  0.81411  Biso   1.000  C
  H48      1.0000 0.13853  0.29717  0.91148  Biso   1.000  H
  H49      1.0000 0.23700  0.32611  0.93772  Biso   1.000  H
  C47      1.0000 0.12939  0.27193  0.02541  Biso   1.000  C
  C48      1.0000 0.99145  0.08074  0.84880  Biso   1.000  C
  H50      1.0000 0.90245  0.17498  0.91998  Biso   1.000  H
  C49      1.0000 0.85851  0.35763  0.91852  Biso   1.000  C
  O9       1.0000 0.10516  0.98547  0.75824  Biso   1.000  O
  O10      1.0000 0.73674  0.07546  0.95411  Biso   1.000  O
  C50      1.0000 0.85035  0.97370  0.86896  Biso   1.000  C
  C51      1.0000 0.88204  0.80270  0.70012  Biso   1.000  C
  H51      1.0000 0.93308  0.88657  0.79181  Biso   1.000  H
  H52      1.0000 0.18197  0.25023  0.06021  Biso   1.000  H
  H53      1.0000 0.08512  0.33569  0.03340  Biso   1.000  H
  H54      1.0000 0.08073  0.22652  0.03318  Biso   1.000  H
  C52      1.0000 0.95435  0.99001  0.89261  Biso   1.000  C
  C53      1.0000 0.81492  0.46945  0.92269  Biso   1.000  C
  H55      1.0000 0.79703  0.32843  0.91531  Biso   1.000  H
  H56      1.0000 0.89040  0.32465  0.96318  Biso   1.000  H
  C54      1.0000 0.18916  0.97949  0.69258  Biso   1.000  C
  C55      1.0000 0.62917  0.11228  0.99584  Biso   1.000  C
  H57      1.0000 0.92535  0.76042  0.73622  Biso   1.000  H
  H58      1.0000 0.87535  0.76568  0.66312  Biso   1.000  H
  H59      1.0000 0.91892  0.85503  0.67580  Biso   1.000  H
  H60      1.0000 0.93843  0.99558  0.94578  Biso   1.000  H
  H61      1.0000 0.01559  0.93328  0.88540  Biso   1.000  H
  H62      1.0000 0.79620  0.50327  0.87408  Biso   1.000  H
  H63      1.0000 0.87434  0.49544  0.93350  Biso   1.000  H
  C56      1.0000 0.71348  0.48903  0.98182  Biso   1.000  C
  H64      1.0000 0.25393  0.99878  0.70091  Biso   1.000  H
  H65      1.0000 0.21027  0.91319  0.68199  Biso   1.000  H
  H66      1.0000 0.15958  0.02233  0.65062  Biso   1.000  H
  H67      1.0000 0.57610  0.14485  0.96188  Biso   1.000  H
  C57      1.0000 0.64548  0.18430  0.04168  Biso   1.000  C
  H68      1.0000 0.60007  0.05901  0.02879  Biso   1.000  H
  C58      1.0000 0.63501  0.57085  0.96222  Biso   1.000  C
  H69      1.0000 0.67870  0.43274  0.99331  Biso   1.000  H
  H70      1.0000 0.73752  0.49602  0.02732  Biso   1.000  H
  C59      1.0000 0.72790  0.14174  0.09642  Biso   1.000  C
  H71      1.0000 0.67150  0.23800  0.00727  Biso   1.000  H
  H72      1.0000 0.57307  0.21131  0.06967  Biso   1.000  H
  H73      1.0000 0.67204  0.62046  0.93209  Biso   1.000  H
  H74      1.0000 0.58660  0.55477  0.93367  Biso   1.000  H
  H75      1.0000 0.59079  0.59499  0.00682  Biso   1.000  H
  C60      1.0000 0.74763  0.21988  0.13579  Biso   1.000  C
  H76      1.0000 0.69910  0.09200  0.13398  Biso   1.000  H
  H77      1.0000 0.79905  0.11032  0.06950  Biso   1.000  H
  H78      1.0000 0.79840  0.18970  0.17087  Biso   1.000  H
  H79      1.0000 0.77953  0.26772  0.09907  Biso   1.000  H
  H80      1.0000 0.67721  0.25167  0.16231  Biso   1.000  H
  C61      1.0000 0.42360  0.54670  0.42755  Biso   1.000  C
  C62      1.0000 0.32499  0.56585  0.47807  Biso   1.000  C
  H81      1.0000 0.43786  0.49305  0.40221  Biso   1.000  H
  C63      1.0000 0.50204  0.60548  0.41370  Biso   1.000  C
  C64      1.0000 0.23996  0.50105  0.49187  Biso   1.000  C
  C65      1.0000 0.30446  0.64718  0.51518  Biso   1.000  C
  O11      1.0000 0.60105  0.58992  0.36301  Biso   1.000  O
  C66      1.0000 0.48354  0.68535  0.45239  Biso   1.000  C
  C67      1.0000 0.15338  0.53767  0.43966  Biso   1.000  C
  H82      1.0000 0.27930  0.43473  0.48471  Biso   1.000  H
  H83      1.0000 0.20196  0.49919  0.54368  Biso   1.000  H
  O12      1.0000 0.20433  0.66359  0.56446  Biso   1.000  O
  C68      1.0000 0.38397  0.70414  0.50324  Biso   1.000  C
  C69      1.0000 0.61893  0.51247  0.31976  Biso   1.000  C
  C70      1.0000 0.56721  0.75094  0.43865  Biso   1.000  C
  C71      1.0000 0.17412  0.50997  0.36780  Biso   1.000  C
  C72      1.0000 0.05271  0.60215  0.46039  Biso   1.000  C
  C73      1.0000 0.17640  0.75082  0.59701  Biso   1.000  C
  H84      1.0000 0.37048  0.75643  0.52999  Biso   1.000  H
  C74      1.0000 0.73231  0.50936  0.26998  Biso   1.000  C
  H85      1.0000 0.56020  0.52455  0.28930  Biso   1.000  H
  H86      1.0000 0.61838  0.45048  0.35271  Biso   1.000  H
  H87      1.0000 0.56592  0.77496  0.48500  Biso   1.000  H
  H88      1.0000 0.64232  0.71296  0.42417  Biso   1.000  H
  C75      1.0000 0.54108  0.83728  0.37777  Biso   1.000  C
  O13      1.0000 0.27677  0.44717  0.34995  Biso   1.000  O
  C76      1.0000 0.09616  0.54525  0.31988  Biso   1.000  C
  C77      1.0000 0.97561  0.63890  0.41167  Biso   1.000  C
  H89      1.0000 0.03688  0.62100  0.50797  Biso   1.000  H
  H90      1.0000 0.17395  0.80645  0.55793  Biso   1.000  H
  H91      1.0000 0.23210  0.74997  0.62680  Biso   1.000  H
  H92      1.0000 0.10401  0.75545  0.62849  Biso   1.000  H
  C78      1.0000 0.76031  0.43257  0.21772  Biso   1.000  C
  H93      1.0000 0.79016  0.49555  0.30152  Biso   1.000  H
  H94      1.0000 0.73302  0.57338  0.24002  Biso   1.000  H
  C79      1.0000 0.46468  0.92368  0.39365  Biso   1.000  C
  C80      1.0000 0.58769  0.83075  0.30264  Biso   1.000  C
  C81      1.0000 0.29994  0.41229  0.27916  Biso   1.000  C
  H95      1.0000 0.11057  0.52466  0.27302  Biso   1.000  H
  C82      1.0000 0.99526  0.61196  0.34032  Biso   1.000  C
  O14      1.0000 0.87415  0.70532  0.42913  Biso   1.000  O
  C83      1.0000 0.87776  0.42688  0.17188  Biso   1.000  C
  H96      1.0000 0.70553  0.44868  0.18370  Biso   1.000  H
  H97      1.0000 0.75541  0.36908  0.24717  Biso   1.000  H
  O15      1.0000 0.42144  0.92782  0.46917  Biso   1.000  O
  C84      1.0000 0.43625  0.99896  0.33632  Biso   1.000  C
  H98      1.0000 0.63895  0.77389  0.29087  Biso   1.000  H
  C85      1.0000 0.56018  0.90603  0.24492  Biso   1.000  C
  C86      1.0000 0.41746  0.34859  0.27235  Biso   1.000  C
  H99      1.0000 0.29547  0.46697  0.23827  Biso   1.000  H
  H100     1.0000 0.24574  0.37449  0.27691  Biso   1.000  H
  C87      1.0000 0.91635  0.65586  0.28389  Biso   1.000  C
  C88      1.0000 0.85120  0.73428  0.50127  Biso   1.000  C
  H101     1.0000 0.89192  0.37887  0.13882  Biso   1.000  H
  H102     1.0000 0.93232  0.40849  0.20527  Biso   1.000  H
  H103     1.0000 0.88289  0.48980  0.14271  Biso   1.000  H
  C89      1.0000 0.34949  0.01732  0.48776  Biso   1.000  C
  C90      1.0000 0.48201  0.99145  0.26176  Biso   1.000  C
  H104     1.0000 0.38517  0.05604  0.34809  Biso   1.000  H
  O16      1.0000 0.60408  0.90160  0.17019  Biso   1.000  O
  C91      1.0000 0.43382  0.26676  0.33801  Biso   1.000  C
  H105     1.0000 0.47105  0.38946  0.26857  Biso   1.000  H
  H106     1.0000 0.43337  0.32017  0.22622  Biso   1.000  H
  H107     1.0000 0.83977  0.67176  0.31042  Biso   1.000  H
  H108     1.0000 0.91973  0.60805  0.25168  Biso   1.000  H
  C92      1.0000 0.94663  0.74778  0.23585  Biso   1.000  C
  H109     1.0000 0.90893  0.76556  0.50651  Biso   1.000  H
  H110     1.0000 0.84961  0.67744  0.53912  Biso   1.000  H
  H111     1.0000 0.77952  0.77924  0.50707  Biso   1.000  H
  H112     1.0000 0.28237  0.02925  0.46590  Biso   1.000  H
  H113     1.0000 0.38760  0.07026  0.46850  Biso   1.000  H
  H114     1.0000 0.32976  0.01291  0.54148  Biso   1.000  H
  C93      1.0000 0.44424  0.07332  0.19925  Biso   1.000  C
  C94      1.0000 0.68207  0.81317  0.15357  Biso   1.000  C
  C95      1.0000 0.55145  0.20260  0.33018  Biso   1.000  C
  H115     1.0000 0.37977  0.22625  0.34218  Biso   1.000  H
  H116     1.0000 0.41898  0.29519  0.38408  Biso   1.000  H
  C96      1.0000 0.01974  0.74369  0.16794  Biso   1.000  C
  C97      1.0000 0.90379  0.83817  0.26029  Biso   1.000  C
  C98      1.0000 0.34066  0.05964  0.17441  Biso   1.000  C
  H117     1.0000 0.42785  0.13611  0.21710  Biso   1.000  H
  H118     1.0000 0.50471  0.07383  0.15662  Biso   1.000  H
  C99      1.0000 0.72928  0.82208  0.07101  Biso   1.000  C
  H119     1.0000 0.64440  0.75861  0.16771  Biso   1.000  H
  H120     1.0000 0.74285  0.80021  0.18258  Biso   1.000  H
  H121     1.0000 0.56456  0.17001  0.28688  Biso   1.000  H
  H122     1.0000 0.55867  0.15459  0.37450  Biso   1.000  H
  H123     1.0000 0.60561  0.24259  0.32421  Biso   1.000  H
  O17      1.0000 0.05969  0.65194  0.14558  Biso   1.000  O
  C100     1.0000 0.04958  0.82864  0.12581  Biso   1.000  C
  H124     1.0000 0.85370  0.84206  0.30529  Biso   1.000  H
  C101     1.0000 0.93371  0.92235  0.21918  Biso   1.000  C
  C102     1.0000 0.35173  0.00195  0.11905  Biso   1.000  C
  C103     1.0000 0.23275  0.10073  0.20831  Biso   1.000  C
  C104     1.0000 0.80774  0.72318  0.05378  Biso   1.000  C
  H125     1.0000 0.77123  0.87388  0.05727  Biso   1.000  H
  H126     1.0000 0.66843  0.83881  0.04167  Biso   1.000  H
  C105     1.0000 0.14170  0.64225  0.08149  Biso   1.000  C
  H127     1.0000 0.09766  0.82498  0.08003  Biso   1.000  H
  C106     1.0000 0.00868  0.91914  0.15121  Biso   1.000  C
  O18      1.0000 0.89497  0.01441  0.24177  Biso   1.000  O
  C107     1.0000 0.25737  0.98385  0.09827  Biso   1.000  C
  H128     1.0000 0.42322  0.97466  0.09551  Biso   1.000  H
  C108     1.0000 0.13866  0.08455  0.18590  Biso   1.000  C
  O19      1.0000 0.22649  0.15764  0.26283  Biso   1.000  O
  H129     1.0000 0.86167  0.70280  0.08847  Biso   1.000  H
  H130     1.0000 0.76312  0.67377  0.06229  Biso   1.000  H
  C109     1.0000 0.87072  0.72802  0.97460  Biso   1.000  C
  C110     1.0000 0.18526  0.53050  0.07732  Biso   1.000  C
  H131     1.0000 0.20318  0.67145  0.08470  Biso   1.000  H
  H132     1.0000 0.10972  0.67531  0.03677  Biso   1.000  H
  C111     1.0000 0.04577  0.00996  0.10734  Biso   1.000  C
  C112     1.0000 0.81096  0.02047  0.30737  Biso   1.000  C
  C113     1.0000 0.14977  0.02626  0.13099  Biso   1.000  C
  O20      1.0000 0.26336  0.92449  0.04590  Biso   1.000  O
  H133     1.0000 0.06704  0.11331  0.20820  Biso   1.000  H
  C114     1.0000 0.11807  0.19726  0.29988  Biso   1.000  C
  H134     1.0000 0.81814  0.74973  0.93980  Biso   1.000  H
  H135     1.0000 0.91501  0.66419  0.96660  Biso   1.000  H
  H136     1.0000 0.91939  0.77345  0.96677  Biso   1.000  H
  H137     1.0000 0.20390  0.49668  0.12592  Biso   1.000  H
  H138     1.0000 0.12585  0.50452  0.06651  Biso   1.000  H
  C115     1.0000 0.28662  0.51092  0.01819  Biso   1.000  C
  H139     1.0000 0.98460  0.06667  0.11460  Biso   1.000  H
  H140     1.0000 0.06177  0.00438  0.05418  Biso   1.000  H
  H141     1.0000 0.84062  0.97756  0.34939  Biso   1.000  H
  H142     1.0000 0.74619  0.00111  0.29910  Biso   1.000  H
  H143     1.0000 0.78993  0.08670  0.31802  Biso   1.000  H
  C116     1.0000 0.37094  0.88767  0.00417  Biso   1.000  C
  H144     1.0000 0.07475  0.23953  0.26379  Biso   1.000  H
  H145     1.0000 0.12478  0.23420  0.33688  Biso   1.000  H
  H146     1.0000 0.08119  0.14493  0.32421  Biso   1.000  H
  C117     1.0000 0.36509  0.42910  0.03779  Biso   1.000  C
  H147     1.0000 0.32141  0.56722  0.00670  Biso   1.000  H
  H148     1.0000 0.26266  0.50393  0.97269  Biso   1.000  H
  H149     1.0000 0.42400  0.85510  0.03813  Biso   1.000  H
  C118     1.0000 0.35465  0.81558  0.95833  Biso   1.000  C
  H150     1.0000 0.40005  0.94088  0.97122  Biso   1.000  H
  H151     1.0000 0.32815  0.37950  0.06792  Biso   1.000  H
  H152     1.0000 0.41352  0.44520  0.06628  Biso   1.000  H
  H153     1.0000 0.40933  0.40489  0.99319  Biso   1.000  H
  C119     1.0000 0.27221  0.85821  0.90359  Biso   1.000  C
  H154     1.0000 0.32864  0.76189  0.99268  Biso   1.000  H
  H155     1.0000 0.42706  0.78859  0.93028  Biso   1.000  H
  C120     1.0000 0.25250  0.78000  0.86422  Biso   1.000  C
  H156     1.0000 0.30102  0.90788  0.86602  Biso   1.000  H
  H157     1.0000 0.20105  0.88963  0.93051  Biso   1.000  H
  H158     1.0000 0.20174  0.81019  0.82908  Biso   1.000  H
  H159     1.0000 0.22059  0.73225  0.90088  Biso   1.000  H
  H160     1.0000 0.32291  0.74821  0.83770  Biso   1.000  H
