data_image0
_cell_length_a       14.669
_cell_length_b       32.397
_cell_length_c       19.484
_cell_angle_alpha    90
_cell_angle_beta     111.65
_cell_angle_gamma    90

_symmetry_space_group_name_H-M    "P 1"
_symmetry_int_tables_number       1

loop_
  _symmetry_equiv_pos_as_xyz
  'x, y, z'

loop_
  _atom_site_label
  _atom_site_occupancy
  _atom_site_fract_x
  _atom_site_fract_y
  _atom_site_fract_z
  _atom_site_thermal_displace_type
  _atom_site_B_iso_or_equiv
  _atom_site_type_symbol
  O1       1.0000 0.65912  0.52113  0.37500  Biso   1.000  O
  C1       1.0000 0.59058  0.49986  0.32000  Biso   1.000  C
  C2       1.0000 0.65899  0.56422  0.36180  Biso   1.000  C
  C3       1.0000 0.59292  0.45655  0.32519  Biso   1.000  C
  N1       1.0000 0.52741  0.52002  0.26439  Biso   1.000  N
  C4       1.0000 0.59115  0.58913  0.37582  Biso   1.000  C
  C5       1.0000 0.72792  0.58036  0.33761  Biso   1.000  C
  C6       1.0000 0.52610  0.43421  0.26881  Biso   1.000  C
  C7       1.0000 0.65902  0.43671  0.38731  Biso   1.000  C
  C8       1.0000 0.46239  0.49884  0.21171  Biso   1.000  C
  C9       1.0000 0.59593  0.63169  0.36290  Biso   1.000  C
  H1       1.0000 0.54461  0.57829  0.39283  Biso   1.000  H
  H2       1.0000 0.77344  0.56302  0.32950  Biso   1.000  H
  C10      1.0000 0.73061  0.62151  0.32530  Biso   1.000  C
  C11      1.0000 0.46031  0.45473  0.21232  Biso   1.000  C
  H3       1.0000 0.52664  0.40550  0.26991  Biso   1.000  H
  N2       1.0000 0.71791  0.42109  0.43988  Biso   1.000  N
  O2       1.0000 0.39480  0.51977  0.15169  Biso   1.000  O
  C12      1.0000 0.66197  0.64812  0.33728  Biso   1.000  C
  H4       1.0000 0.55172  0.64920  0.37229  Biso   1.000  H
  H5       1.0000 0.77781  0.63219  0.30879  Biso   1.000  H
  C13      1.0000 0.37940  0.43526  0.14683  Biso   1.000  C
  C14      1.0000 0.39520  0.56391  0.16279  Biso   1.000  C
  C15      1.0000 0.66384  0.69334  0.32453  Biso   1.000  C
  N3       1.0000 0.33000  0.41880  0.09818  Biso   1.000  N
  C16      1.0000 0.32693  0.57993  0.18499  Biso   1.000  C
  C17      1.0000 0.46427  0.58743  0.14849  Biso   1.000  C
  C18      1.0000 0.64459  0.72164  0.37290  Biso   1.000  C
  C19      1.0000 0.68744  0.70874  0.26682  Biso   1.000  C
  H6       1.0000 0.28433  0.56249  0.19669  Biso   1.000  H
  C20      1.0000 0.31891  0.62296  0.19073  Biso   1.000  C
  C21      1.0000 0.46141  0.63015  0.15699  Biso   1.000  C
  H7       1.0000 0.51136  0.57530  0.13358  Biso   1.000  H
  C22      1.0000 0.64742  0.76436  0.36169  Biso   1.000  C
  H8       1.0000 0.63010  0.71179  0.41260  Biso   1.000  H
  H9       1.0000 0.70281  0.69040  0.23601  Biso   1.000  H
  C23      1.0000 0.68863  0.75090  0.25368  Biso   1.000  C
  H10      1.0000 0.26862  0.63441  0.20288  Biso   1.000  H
  C24      1.0000 0.38963  0.64861  0.17759  Biso   1.000  C
  H11      1.0000 0.50833  0.64660  0.14882  Biso   1.000  H
  C25      1.0000 0.62814  0.79372  0.41431  Biso   1.000  C
  C26      1.0000 0.66908  0.77776  0.30310  Biso   1.000  C
  C27      1.0000 0.71274  0.76788  0.19062  Biso   1.000  C
  C28      1.0000 0.38784  0.69392  0.18631  Biso   1.000  C
  C29      1.0000 0.66073  0.78461  0.48930  Biso   1.000  C
  C30      1.0000 0.58015  0.83045  0.38913  Biso   1.000  C
  H12      1.0000 0.67099  0.80600  0.29559  Biso   1.000  H
  C31      1.0000 0.76993  0.80285  0.19978  Biso   1.000  C
  C32      1.0000 0.68142  0.74745  0.12281  Biso   1.000  C
  C33      1.0000 0.40540  0.72034  0.13810  Biso   1.000  C
  C34      1.0000 0.36270  0.71133  0.24490  Biso   1.000  C
  C35      1.0000 0.64349  0.81239  0.53939  Biso   1.000  C
  H13      1.0000 0.69400  0.76010  0.50670  Biso   1.000  H
  H14      1.0000 0.56051  0.83711  0.33932  Biso   1.000  H
  C36      1.0000 0.56051  0.85770  0.43739  Biso   1.000  C
  H15      1.0000 0.79600  0.81542  0.24589  Biso   1.000  H
  C37      1.0000 0.78900  0.81980  0.13910  Biso   1.000  C
  C38      1.0000 0.70129  0.76337  0.06361  Biso   1.000  C
  H16      1.0000 0.64683  0.72291  0.11718  Biso   1.000  H
  C39      1.0000 0.40211  0.76368  0.14572  Biso   1.000  C
  H17      1.0000 0.41990  0.70951  0.09912  Biso   1.000  H
  H18      1.0000 0.34859  0.69389  0.27759  Biso   1.000  H
  C40      1.0000 0.35938  0.75297  0.25329  Biso   1.000  C
  C41      1.0000 0.59426  0.84841  0.51183  Biso   1.000  C
  H19      1.0000 0.66497  0.80640  0.58964  Biso   1.000  H
  H20      1.0000 0.52533  0.88181  0.41972  Biso   1.000  H
  H21      1.0000 0.82422  0.84421  0.14390  Biso   1.000  H
  C42      1.0000 0.75359  0.79887  0.07322  Biso   1.000  C
  H22      1.0000 0.67919  0.74992  0.01822  Biso   1.000  H
  C43      1.0000 0.41898  0.79155  0.08918  Biso   1.000  C
  C44      1.0000 0.37920  0.77899  0.20332  Biso   1.000  C
  C45      1.0000 0.33662  0.77069  0.31591  Biso   1.000  C
  O3       1.0000 0.57910  0.87737  0.56131  Biso   1.000  O
  O4       1.0000 0.77613  0.81616  0.01474  Biso   1.000  O
  C46      1.0000 0.46491  0.83082  0.11182  Biso   1.000  C
  C47      1.0000 0.39244  0.78035  0.01651  Biso   1.000  C
  H23      1.0000 0.37679  0.80739  0.20912  Biso   1.000  H
  C48      1.0000 0.28073  0.80748  0.30509  Biso   1.000  C
  C49      1.0000 0.36522  0.75263  0.38472  Biso   1.000  C
  C50      1.0000 0.49131  0.87650  0.56843  Biso   1.000  C
  C51      1.0000 0.70814  0.84147  0.96935  Biso   1.000  C
  C52      1.0000 0.47819  0.85709  0.06212  Biso   1.000  C
  H24      1.0000 0.48589  0.83841  0.16130  Biso   1.000  H
  H25      1.0000 0.36331  0.75479  0.00088  Biso   1.000  H
  C53      1.0000 0.40841  0.80680  0.96576  Biso   1.000  C
  H26      1.0000 0.25913  0.82029  0.25920  Biso   1.000  H
  C54      1.0000 0.25802  0.82446  0.36141  Biso   1.000  C
  C55      1.0000 0.34295  0.76899  0.44082  Biso   1.000  C
  H27      1.0000 0.40112  0.72831  0.39300  Biso   1.000  H
  N4       1.0000 0.42397  0.85076  0.52392  Biso   1.000  N
  C56      1.0000 0.47675  0.90227  0.62050  Biso   1.000  C
  N5       1.0000 0.62331  0.84369  0.97626  Biso   1.000  N
  C57      1.0000 0.72954  0.86403  0.91424  Biso   1.000  C
  H28      1.0000 0.50582  0.88301  0.07692  Biso   1.000  H
  C58      1.0000 0.45019  0.84486  0.98885  Biso   1.000  C
  H29      1.0000 0.39103  0.79881  0.91667  Biso   1.000  H
  H30      1.0000 0.22105  0.84850  0.35412  Biso   1.000  H
  C59      1.0000 0.29143  0.80489  0.42861  Biso   1.000  C
  H31      1.0000 0.36240  0.75590  0.48649  Biso   1.000  H
  C60      1.0000 0.33651  0.84999  0.53160  Biso   1.000  C
  C61      1.0000 0.38431  0.89934  0.62663  Biso   1.000  C
  C62      1.0000 0.55252  0.92731  0.66899  Biso   1.000  C
  C63      1.0000 0.55490  0.86909  0.93125  Biso   1.000  C
  C64      1.0000 0.66029  0.88999  0.86963  Biso   1.000  C
  C65      1.0000 0.82941  0.86048  0.91204  Biso   1.000  C
  O5       1.0000 0.46672  0.87110  0.93716  Biso   1.000  O
  O6       1.0000 0.26702  0.82390  0.48731  Biso   1.000  O
  C66      1.0000 0.31267  0.87357  0.58213  Biso   1.000  C
  H32      1.0000 0.37155  0.91530  0.66181  Biso   1.000  H
  N6       1.0000 0.61572  0.94691  0.70753  Biso   1.000  N
  C67      1.0000 0.57042  0.89345  0.87653  Biso   1.000  C
  H33      1.0000 0.67362  0.90549  0.83423  Biso   1.000  H
  N7       1.0000 0.90400  0.85662  0.90927  Biso   1.000  N
  C68      1.0000 0.21939  0.87110  0.58710  Biso   1.000  C
  C69      1.0000 0.49352  0.91836  0.82965  Biso   1.000  C
  N8       1.0000 0.14317  0.86761  0.59334  Biso   1.000  N
  N9       1.0000 0.42981  0.93925  0.79243  Biso   1.000  N
  O7       1.0000 0.34092  0.47887  0.62503  Biso   1.000  O
  C70      1.0000 0.34105  0.43578  0.63823  Biso   1.000  C
  C71      1.0000 0.40945  0.50014  0.68003  Biso   1.000  C
  C72      1.0000 0.40896  0.41087  0.62420  Biso   1.000  C
  C73      1.0000 0.27212  0.41964  0.66241  Biso   1.000  C
  N10      1.0000 0.47263  0.47998  0.73564  Biso   1.000  N
  C74      1.0000 0.40709  0.54345  0.67478  Biso   1.000  C
  C75      1.0000 0.40411  0.36831  0.63712  Biso   1.000  C
  H34      1.0000 0.45543  0.42171  0.60720  Biso   1.000  H
  C76      1.0000 0.26942  0.37849  0.67473  Biso   1.000  C
  H35      1.0000 0.22667  0.43698  0.67053  Biso   1.000  H
  C77      1.0000 0.53764  0.50116  0.78832  Biso   1.000  C
  C78      1.0000 0.47394  0.56579  0.73122  Biso   1.000  C
  C79      1.0000 0.34102  0.56329  0.61272  Biso   1.000  C
  C80      1.0000 0.33804  0.35188  0.66269  Biso   1.000  C
  H36      1.0000 0.44829  0.35080  0.62768  Biso   1.000  H
  H37      1.0000 0.22220  0.36781  0.69118  Biso   1.000  H
  O8       1.0000 0.60523  0.48023  0.84834  Biso   1.000  O
  C81      1.0000 0.53973  0.54527  0.78771  Biso   1.000  C
  H38      1.0000 0.47347  0.59450  0.73011  Biso   1.000  H
  N11      1.0000 0.28210  0.57891  0.56009  Biso   1.000  N
  C82      1.0000 0.33620  0.30666  0.67550  Biso   1.000  C
  C83      1.0000 0.60481  0.43609  0.83718  Biso   1.000  C
  C84      1.0000 0.62063  0.56474  0.85320  Biso   1.000  C
  C85      1.0000 0.35545  0.27836  0.62713  Biso   1.000  C
  C86      1.0000 0.31260  0.29126  0.73321  Biso   1.000  C
  C87      1.0000 0.67315  0.42007  0.81499  Biso   1.000  C
  C88      1.0000 0.53574  0.41257  0.85149  Biso   1.000  C
  N12      1.0000 0.67001  0.58120  0.90179  Biso   1.000  N
  C89      1.0000 0.35259  0.23564  0.63828  Biso   1.000  C
  H39      1.0000 0.36994  0.28821  0.58743  Biso   1.000  H
  C90      1.0000 0.31145  0.24910  0.74629  Biso   1.000  C
  H40      1.0000 0.29723  0.30960  0.76402  Biso   1.000  H
  C91      1.0000 0.68113  0.37704  0.80930  Biso   1.000  C
  H41      1.0000 0.71577  0.43751  0.80334  Biso   1.000  H
  C92      1.0000 0.53862  0.36985  0.84304  Biso   1.000  C
  H42      1.0000 0.48865  0.42470  0.86640  Biso   1.000  H
  C93      1.0000 0.37196  0.20628  0.58571  Biso   1.000  C
  C94      1.0000 0.33095  0.22224  0.69693  Biso   1.000  C
  C95      1.0000 0.28736  0.23212  0.80941  Biso   1.000  C
  C96      1.0000 0.61044  0.35139  0.82239  Biso   1.000  C
  H43      1.0000 0.73146  0.36559  0.79710  Biso   1.000  H
  H44      1.0000 0.49177  0.35340  0.85121  Biso   1.000  H
  C97      1.0000 0.33931  0.21539  0.51073  Biso   1.000  C
  C98      1.0000 0.41996  0.16955  0.61089  Biso   1.000  C
  H45      1.0000 0.32904  0.19400  0.70444  Biso   1.000  H
  C99      1.0000 0.23015  0.19715  0.80019  Biso   1.000  C
  C100     1.0000 0.31861  0.25255  0.87722  Biso   1.000  C
  C101     1.0000 0.61226  0.30608  0.81372  Biso   1.000  C
  C102     1.0000 0.35652  0.18761  0.46059  Biso   1.000  C
  H46      1.0000 0.30604  0.23990  0.49333  Biso   1.000  H
  C103     1.0000 0.43953  0.14230  0.56263  Biso   1.000  C
  H47      1.0000 0.43952  0.16289  0.66070  Biso   1.000  H
  H48      1.0000 0.20403  0.18458  0.75413  Biso   1.000  H
  C104     1.0000 0.21103  0.18020  0.86093  Biso   1.000  C
  C105     1.0000 0.29874  0.23663  0.93641  Biso   1.000  C
  H49      1.0000 0.35325  0.27709  0.88280  Biso   1.000  H
  C106     1.0000 0.63734  0.28867  0.75513  Biso   1.000  C
  C107     1.0000 0.59464  0.27966  0.86192  Biso   1.000  C
  C108     1.0000 0.40584  0.15159  0.48820  Biso   1.000  C
  H50      1.0000 0.33513  0.19360  0.41039  Biso   1.000  H
  H51      1.0000 0.47470  0.11819  0.58030  Biso   1.000  H
  H52      1.0000 0.17582  0.15579  0.85613  Biso   1.000  H
  C109     1.0000 0.24645  0.20113  0.92681  Biso   1.000  C
  H53      1.0000 0.32085  0.25008  0.98181  Biso   1.000  H
  C110     1.0000 0.64066  0.24703  0.74674  Biso   1.000  C
  H54      1.0000 0.65142  0.30611  0.72238  Biso   1.000  H
  C111     1.0000 0.59793  0.23632  0.85430  Biso   1.000  C
  H55      1.0000 0.58014  0.29049  0.90091  Biso   1.000  H
  O9       1.0000 0.42093  0.12263  0.43872  Biso   1.000  O
  O10      1.0000 0.22398  0.18384  0.98528  Biso   1.000  O
  C112     1.0000 0.66342  0.22931  0.68412  Biso   1.000  C
  C113     1.0000 0.62083  0.22101  0.79671  Biso   1.000  C
  C114     1.0000 0.58103  0.20845  0.91079  Biso   1.000  C
  C115     1.0000 0.50872  0.12350  0.43160  Biso   1.000  C
  C116     1.0000 0.29197  0.15853  0.03067  Biso   1.000  C
  C117     1.0000 0.71934  0.19252  0.69488  Biso   1.000  C
  C118     1.0000 0.63481  0.24737  0.61531  Biso   1.000  C
  H56      1.0000 0.62324  0.19261  0.79091  Biso   1.000  H
  C119     1.0000 0.53512  0.16918  0.88821  Biso   1.000  C
  C120     1.0000 0.60767  0.21965  0.98352  Biso   1.000  C
  N13      1.0000 0.57614  0.14924  0.47610  Biso   1.000  N
  C121     1.0000 0.52336  0.09773  0.37952  Biso   1.000  C
  N14      1.0000 0.37673  0.15631  0.02377  Biso   1.000  N
  C122     1.0000 0.27057  0.13597  0.08578  Biso   1.000  C
  C123     1.0000 0.74201  0.17554  0.63862  Biso   1.000  C
  H57      1.0000 0.74097  0.17971  0.74083  Biso   1.000  H
  C124     1.0000 0.65715  0.23101  0.55921  Biso   1.000  C
  H58      1.0000 0.59892  0.27169  0.60703  Biso   1.000  H
  C125     1.0000 0.52185  0.14291  0.93791  Biso   1.000  C
  H59      1.0000 0.51415  0.16159  0.83873  Biso   1.000  H
  H60      1.0000 0.63677  0.24521  0.99909  Biso   1.000  H
  C126     1.0000 0.59163  0.19320  0.03426  Biso   1.000  C
  C127     1.0000 0.66352  0.15001  0.46843  Biso   1.000  C
  C128     1.0000 0.61573  0.10066  0.37340  Biso   1.000  C
  C129     1.0000 0.44749  0.07269  0.33099  Biso   1.000  C
  C130     1.0000 0.44514  0.13091  0.06878  Biso   1.000  C
  C131     1.0000 0.33972  0.11001  0.13035  Biso   1.000  C
  C132     1.0000 0.17060  0.13952  0.08794  Biso   1.000  C
  C133     1.0000 0.70860  0.19511  0.57141  Biso   1.000  C
  H61      1.0000 0.77906  0.15150  0.64590  Biso   1.000  H
  H62      1.0000 0.63761  0.24410  0.51349  Biso   1.000  H
  C134     1.0000 0.54985  0.15514  0.01118  Biso   1.000  C
  H63      1.0000 0.49421  0.11699  0.92311  Biso   1.000  H
  H64      1.0000 0.60901  0.20119  0.08335  Biso   1.000  H
  O11      1.0000 0.73299  0.17610  0.51266  Biso   1.000  O
  C135     1.0000 0.68744  0.12643  0.41790  Biso   1.000  C
  H65      1.0000 0.62855  0.08470  0.33822  Biso   1.000  H
  N15      1.0000 0.38432  0.05309  0.29250  Biso   1.000  N
  O12      1.0000 0.53332  0.12890  0.06287  Biso   1.000  O
  C136     1.0000 0.42959  0.10655  0.12344  Biso   1.000  C
  H66      1.0000 0.32645  0.09451  0.16574  Biso   1.000  H
  N16      1.0000 0.09603  0.14338  0.09075  Biso   1.000  N
  C137     1.0000 0.78065  0.12890  0.41293  Biso   1.000  C
  C138     1.0000 0.50652  0.08164  0.17038  Biso   1.000  C
  N17      1.0000 0.85694  0.13239  0.40669  Biso   1.000  N
  N18      1.0000 0.57020  0.06075  0.20754  Biso   1.000  N
  N19      1.0000 0.59601  0.35664  0.59079  Biso   1.000  N
  C139     1.0000 0.67067  0.36050  0.58803  Biso   1.000  C
  C140     1.0000 0.77054  0.36402  0.58583  Biso   1.000  C
  C141     1.0000 0.79194  0.34148  0.53072  Biso   1.000  C
  C142     1.0000 0.83969  0.39001  0.63039  Biso   1.000  C
  O13      1.0000 0.72393  0.31614  0.48527  Biso   1.000  O
  N20      1.0000 0.87670  0.34370  0.52381  Biso   1.000  N
  C143     1.0000 0.92964  0.39346  0.62348  Biso   1.000  C
  H67      1.0000 0.82643  0.40550  0.66578  Biso   1.000  H
  C144     1.0000 0.74640  0.29889  0.42679  Biso   1.000  C
  C145     1.0000 0.94511  0.36908  0.56882  Biso   1.000  C
  C146     1.0000 0.00656  0.41834  0.67042  Biso   1.000  C
  C147     1.0000 0.71105  0.31981  0.36092  Biso   1.000  C
  C148     1.0000 0.79869  0.26336  0.43640  Biso   1.000  C
  O14      1.0000 0.03336  0.37108  0.56291  Biso   1.000  O
  N21      1.0000 0.07024  0.43924  0.70758  Biso   1.000  N
  C149     1.0000 0.73012  0.30284  0.30023  Biso   1.000  C
  H68      1.0000 0.67584  0.34420  0.35611  Biso   1.000  H
  C150     1.0000 0.81863  0.24746  0.37721  Biso   1.000  C
  H69      1.0000 0.82080  0.24990  0.48179  Biso   1.000  H
  C151     1.0000 0.04982  0.34485  0.51122  Biso   1.000  C
  C152     1.0000 0.78731  0.26790  0.30940  Biso   1.000  C
  H70      1.0000 0.70405  0.31540  0.25412  Biso   1.000  H
  H71      1.0000 0.85320  0.22289  0.38278  Biso   1.000  H
  C153     1.0000 0.02180  0.35707  0.43789  Biso   1.000  C
  C154     1.0000 0.09161  0.30679  0.53431  Biso   1.000  C
  C155     1.0000 0.81139  0.25092  0.24628  Biso   1.000  C
  H72      1.0000 0.99423  0.38300  0.42309  Biso   1.000  H
  C156     1.0000 0.03514  0.33080  0.38819  Biso   1.000  C
  C157     1.0000 0.10761  0.28033  0.48350  Biso   1.000  C
  H73      1.0000 0.10905  0.29879  0.58340  Biso   1.000  H
  C158     1.0000 0.81262  0.20875  0.23319  Biso   1.000  C
  C159     1.0000 0.83090  0.27777  0.19691  Biso   1.000  C
  H74      1.0000 0.01410  0.33840  0.33872  Biso   1.000  H
  C160     1.0000 0.08097  0.29154  0.41078  Biso   1.000  C
  H75      1.0000 0.13675  0.25481  0.49913  Biso   1.000  H
  C161     1.0000 0.83622  0.19335  0.17549  Biso   1.000  C
  H76      1.0000 0.79724  0.19039  0.26401  Biso   1.000  H
  C162     1.0000 0.85264  0.26435  0.13833  Biso   1.000  C
  H77      1.0000 0.82899  0.30599  0.20442  Biso   1.000  H
  C163     1.0000 0.09788  0.26367  0.35429  Biso   1.000  C
  C164     1.0000 0.85539  0.22163  0.12712  Biso   1.000  C
  C165     1.0000 0.83798  0.14813  0.16268  Biso   1.000  C
  C166     1.0000 0.87191  0.29373  0.08570  Biso   1.000  C
  C167     1.0000 0.09459  0.22033  0.36191  Biso   1.000  C
  C168     1.0000 0.12078  0.27898  0.29670  Biso   1.000  C
  H78      1.0000 0.86989  0.21181  0.08741  Biso   1.000  H
  C169     1.0000 0.90412  0.13168  0.13711  Biso   1.000  C
  C170     1.0000 0.76944  0.12152  0.17471  Biso   1.000  C
  C171     1.0000 0.83932  0.28463  0.01071  Biso   1.000  C
  C172     1.0000 0.91990  0.33043  0.11088  Biso   1.000  C
  H79      1.0000 0.08009  0.20949  0.40089  Biso   1.000  H
  C173     1.0000 0.11221  0.19391  0.31370  Biso   1.000  C
  C174     1.0000 0.14060  0.25296  0.24672  Biso   1.000  C
  H80      1.0000 0.12319  0.30741  0.29090  Biso   1.000  H
  H81      1.0000 0.94833  0.14921  0.12772  Biso   1.000  H
  C175     1.0000 0.90890  0.08914  0.12419  Biso   1.000  C
  C176     1.0000 0.77213  0.08038  0.16240  Biso   1.000  C
  H82      1.0000 0.72224  0.13220  0.19123  Biso   1.000  H
  C177     1.0000 0.85650  0.31237  0.96063  Biso   1.000  C
  H83      1.0000 0.80601  0.26009  0.99337  Biso   1.000  H
  H84      1.0000 0.93947  0.33710  0.16069  Biso   1.000  H
  C178     1.0000 0.93954  0.35772  0.06262  Biso   1.000  C
  C179     1.0000 0.13729  0.21132  0.25511  Biso   1.000  C
  C180     1.0000 0.11042  0.14859  0.32243  Biso   1.000  C
  C181     1.0000 0.16343  0.27070  0.18410  Biso   1.000  C
  H85      1.0000 0.95538  0.07831  0.10718  Biso   1.000  H
  C182     1.0000 0.84099  0.06423  0.13821  Biso   1.000  C
  H86      1.0000 0.72662  0.06300  0.17052  Biso   1.000  H
  C183     1.0000 0.90582  0.34840  0.98824  Biso   1.000  C
  H87      1.0000 0.83511  0.30639  0.91043  Biso   1.000  H
  H88      1.0000 0.97472  0.38179  0.08029  Biso   1.000  H
  H89      1.0000 0.15140  0.19391  0.22242  Biso   1.000  H
  C184     1.0000 0.18108  0.12297  0.30929  Biso   1.000  C
  C185     1.0000 0.03864  0.13014  0.34302  Biso   1.000  C
  C186     1.0000 0.21932  0.30750  0.19493  Biso   1.000  C
  C187     1.0000 0.13483  0.25265  0.11530  Biso   1.000  C
  O15      1.0000 0.84093  0.02114  0.12502  Biso   1.000  O
  O16      1.0000 0.92091  0.37735  0.93876  Biso   1.000  O
  C188     1.0000 0.17312  0.07991  0.31503  Biso   1.000  C
  H90      1.0000 0.23141  0.13440  0.29708  Biso   1.000  H
  C189     1.0000 0.03572  0.08742  0.35153  Biso   1.000  C
  H91      1.0000 0.99172  0.14659  0.35120  Biso   1.000  H
  C190     1.0000 0.24203  0.32447  0.13860  Biso   1.000  C
  H92      1.0000 0.24092  0.32031  0.24081  Biso   1.000  H
  C191     1.0000 0.15710  0.26901  0.05920  Biso   1.000  C
  H93      1.0000 0.09893  0.22829  0.10702  Biso   1.000  H
  C192     1.0000 0.90940  0.99985  0.18002  Biso   1.000  C
  C193     1.0000 0.00870  0.37649  0.93164  Biso   1.000  C
  C194     1.0000 0.10485  0.06389  0.33723  Biso   1.000  C
  H94      1.0000 0.21572  0.06251  0.30332  Biso   1.000  H
  H95      1.0000 0.98859  0.07528  0.36638  Biso   1.000  H
  C195     1.0000 0.20862  0.30490  0.07140  Biso   1.000  C
  H96      1.0000 0.27900  0.34849  0.14589  Biso   1.000  H
  H97      1.0000 0.13756  0.25589  0.01347  Biso   1.000  H
  N22      1.0000 0.97265  0.02003  0.23562  Biso   1.000  N
  C196     1.0000 0.90713  0.95654  0.17483  Biso   1.000  C
  N23      1.0000 0.07611  0.35077  0.97615  Biso   1.000  N
  C197     1.0000 0.02333  0.40226  0.87957  Biso   1.000  C
  O17      1.0000 0.10525  0.01975  0.34833  Biso   1.000  O
  O18      1.0000 0.23300  0.32389  0.01265  Biso   1.000  O
  C198     1.0000 0.03759  0.99886  0.28830  Biso   1.000  C
  C199     1.0000 0.97389  0.93419  0.23120  Biso   1.000  C
  C200     1.0000 0.84104  0.93669  0.11270  Biso   1.000  C
  C201     1.0000 0.16357  0.34997  0.96847  Biso   1.000  C
  C202     1.0000 0.94753  0.42729  0.83103  Biso   1.000  C
  C203     1.0000 0.11570  0.39933  0.87344  Biso   1.000  C
  C204     1.0000 0.03968  0.95472  0.28769  Biso   1.000  C
  H98      1.0000 0.97342  0.90549  0.23010  Biso   1.000  H
  N24      1.0000 0.78212  0.92110  0.06008  Biso   1.000  N
  C205     1.0000 0.18741  0.37358  0.91794  Biso   1.000  C
  N25      1.0000 0.88429  0.44692  0.79254  Biso   1.000  N
  H99      1.0000 0.12853  0.41529  0.83826  Biso   1.000  H
  C206     1.0000 0.12058  0.93527  0.35318  Biso   1.000  C
  C207     1.0000 0.28062  0.37111  0.91297  Biso   1.000  C
  N26      1.0000 0.17003  0.91879  0.40178  Biso   1.000  N
  N27      1.0000 0.35691  0.36760  0.90673  Biso   1.000  N
  N28      1.0000 0.40403  0.64336  0.40923  Biso   1.000  N
  C208     1.0000 0.32944  0.63950  0.41199  Biso   1.000  C
  C209     1.0000 0.22949  0.63598  0.41420  Biso   1.000  C
  C210     1.0000 0.16032  0.60999  0.36959  Biso   1.000  C
  C211     1.0000 0.20810  0.65852  0.46931  Biso   1.000  C
  H100     1.0000 0.17358  0.59450  0.33419  Biso   1.000  H
  C212     1.0000 0.07044  0.60654  0.37649  Biso   1.000  C
  O19      1.0000 0.27611  0.68386  0.51476  Biso   1.000  O
  N29      1.0000 0.12333  0.65630  0.47621  Biso   1.000  N
  C213     1.0000 0.05492  0.63092  0.43121  Biso   1.000  C
  C214     1.0000 0.99355  0.58166  0.32961  Biso   1.000  C
  C215     1.0000 0.25364  0.70111  0.57324  Biso   1.000  C
  O20      1.0000 0.96674  0.62892  0.43712  Biso   1.000  O
  N30      1.0000 0.92984  0.56076  0.29239  Biso   1.000  N
  C216     1.0000 0.28906  0.68019  0.63911  Biso   1.000  C
  C217     1.0000 0.20135  0.73664  0.56363  Biso   1.000  C
  C218     1.0000 0.95021  0.65515  0.48880  Biso   1.000  C
  C219     1.0000 0.26992  0.69716  0.69980  Biso   1.000  C
  H101     1.0000 0.32427  0.65580  0.64392  Biso   1.000  H
  H102     1.0000 0.17921  0.75010  0.51818  Biso   1.000  H
  C220     1.0000 0.18141  0.75254  0.62282  Biso   1.000  C
  C221     1.0000 0.97821  0.64293  0.56208  Biso   1.000  C
  C222     1.0000 0.90843  0.69321  0.46572  Biso   1.000  C
  C223     1.0000 0.21273  0.73210  0.69063  Biso   1.000  C
  H103     1.0000 0.29606  0.68460  0.74591  Biso   1.000  H
  H104     1.0000 0.14681  0.77711  0.61719  Biso   1.000  H
  H105     1.0000 0.00581  0.61700  0.57693  Biso   1.000  H
  C224     1.0000 0.96496  0.66920  0.61183  Biso   1.000  C
  C225     1.0000 0.89242  0.71967  0.51652  Biso   1.000  C
  H106     1.0000 0.89106  0.70121  0.41663  Biso   1.000  H
  C226     1.0000 0.18862  0.74908  0.75369  Biso   1.000  C
  H107     1.0000 0.98594  0.66160  0.66131  Biso   1.000  H
  C227     1.0000 0.91904  0.70846  0.58919  Biso   1.000  C
  H108     1.0000 0.86329  0.74519  0.50090  Biso   1.000  H
  C228     1.0000 0.18742  0.79125  0.76684  Biso   1.000  C
  C229     1.0000 0.16914  0.72223  0.80311  Biso   1.000  C
  C230     1.0000 0.90213  0.73633  0.64568  Biso   1.000  C
  C231     1.0000 0.16386  0.80665  0.82448  Biso   1.000  C
  H109     1.0000 0.20286  0.80961  0.73602  Biso   1.000  H
  C232     1.0000 0.14747  0.73565  0.86170  Biso   1.000  C
  H110     1.0000 0.17105  0.69401  0.79560  Biso   1.000  H
  C233     1.0000 0.90545  0.77967  0.63812  Biso   1.000  C
  C234     1.0000 0.87926  0.72102  0.70333  Biso   1.000  C
  C235     1.0000 0.14464  0.77837  0.87291  Biso   1.000  C
  C236     1.0000 0.16203  0.85187  0.83730  Biso   1.000  C
  C237     1.0000 0.12813  0.70627  0.91433  Biso   1.000  C
  H111     1.0000 0.91995  0.79051  0.59913  Biso   1.000  H
  C238     1.0000 0.88783  0.80609  0.68632  Biso   1.000  C
  C239     1.0000 0.85943  0.74704  0.75331  Biso   1.000  C
  H112     1.0000 0.87685  0.69259  0.70913  Biso   1.000  H
  H113     1.0000 0.13015  0.78819  0.91261  Biso   1.000  H
  C240     1.0000 0.09591  0.86832  0.86292  Biso   1.000  C
  C241     1.0000 0.23067  0.87848  0.82531  Biso   1.000  C
  C242     1.0000 0.16078  0.71537  0.98932  Biso   1.000  C
  C243     1.0000 0.08011  0.66957  0.88909  Biso   1.000  C
  C244     1.0000 0.86275  0.78868  0.74491  Biso   1.000  C
  C245     1.0000 0.88962  0.85141  0.67760  Biso   1.000  C
  C246     1.0000 0.83667  0.72930  0.81593  Biso   1.000  C
  H114     1.0000 0.05177  0.85079  0.87230  Biso   1.000  H
  C247     1.0000 0.09113  0.91086  0.87584  Biso   1.000  C
  C248     1.0000 0.22797  0.91962  0.83763  Biso   1.000  C
  H115     1.0000 0.27786  0.86780  0.80880  Biso   1.000  H
  C249     1.0000 0.14351  0.68763  0.03934  Biso   1.000  C
  H116     1.0000 0.19403  0.73991  0.00665  Biso   1.000  H
  H117     1.0000 0.06057  0.66290  0.83934  Biso   1.000  H
  C250     1.0000 0.06056  0.64228  0.93741  Biso   1.000  C
  H118     1.0000 0.84864  0.80609  0.77760  Biso   1.000  H
  C251     1.0000 0.81893  0.87703  0.69069  Biso   1.000  C
  C252     1.0000 0.96140  0.86986  0.65700  Biso   1.000  C
  C253     1.0000 0.78072  0.69250  0.80510  Biso   1.000  C
  C254     1.0000 0.86528  0.74735  0.88473  Biso   1.000  C
  H119     1.0000 0.04463  0.92169  0.89279  Biso   1.000  H
  C255     1.0000 0.15904  0.93577  0.86181  Biso   1.000  C
  H120     1.0000 0.27342  0.93700  0.82951  Biso   1.000  H
  C256     1.0000 0.09419  0.65160  0.01173  Biso   1.000  C
  H121     1.0000 0.16490  0.69361  0.08954  Biso   1.000  H
  H122     1.0000 0.02539  0.61821  0.91974  Biso   1.000  H
  C257     1.0000 0.82691  0.92009  0.68500  Biso   1.000  C
  H123     1.0000 0.76860  0.86560  0.70289  Biso   1.000  H
  H124     1.0000 0.00832  0.85341  0.64883  Biso   1.000  H
  C258     1.0000 0.96432  0.91258  0.64850  Biso   1.000  C
  H125     1.0000 0.75912  0.67969  0.75921  Biso   1.000  H
  C259     1.0000 0.75808  0.67553  0.86143  Biso   1.000  C
  C260     1.0000 0.84294  0.73099  0.94083  Biso   1.000  C
  H126     1.0000 0.90117  0.77171  0.89301  Biso   1.000  H
  O21      1.0000 0.15917  0.97886  0.87501  Biso   1.000  O
  O22      1.0000 0.07913  0.62265  0.06127  Biso   1.000  O
  C261     1.0000 0.89525  0.93611  0.66280  Biso   1.000  C
  H127     1.0000 0.78432  0.93749  0.69671  Biso   1.000  H
  H128     1.0000 0.01142  0.92472  0.63359  Biso   1.000  H
  H129     1.0000 0.72103  0.65151  0.85414  Biso   1.000  H
  C262     1.0000 0.79149  0.69510  0.92863  Biso   1.000  C
  H130     1.0000 0.86245  0.74411  0.98650  Biso   1.000  H
  C263     1.0000 0.09064  0.00015  0.82001  Biso   1.000  C
  C264     1.0000 0.99131  0.62351  0.06833  Biso   1.000  C
  O23      1.0000 0.89486  0.98025  0.65170  Biso   1.000  O
  O24      1.0000 0.76701  0.67611  0.98733  Biso   1.000  O
  N31      1.0000 0.02746  0.97997  0.76441  Biso   1.000  N
  C265     1.0000 0.09291  0.04346  0.82520  Biso   1.000  C
  N32      1.0000 0.92392  0.64923  0.02388  Biso   1.000  N
  C266     1.0000 0.97670  0.59774  0.12046  Biso   1.000  C
  C267     1.0000 0.96245  0.00114  0.71173  Biso   1.000  C
  C268     1.0000 0.83654  0.65003  0.03156  Biso   1.000  C
  C269     1.0000 0.02615  0.06581  0.76882  Biso   1.000  C
  C270     1.0000 0.15907  0.06331  0.88732  Biso   1.000  C
  C271     1.0000 0.88431  0.60067  0.12654  Biso   1.000  C
  C272     1.0000 0.05254  0.57271  0.16894  Biso   1.000  C
  C273     1.0000 0.96036  0.04528  0.71233  Biso   1.000  C
  C274     1.0000 0.81262  0.62642  0.08208  Biso   1.000  C
  H131     1.0000 0.02662  0.09451  0.76993  Biso   1.000  H
  N33      1.0000 0.21796  0.07890  0.93989  Biso   1.000  N
  H132     1.0000 0.87151  0.58471  0.16177  Biso   1.000  H
  N34      1.0000 0.11574  0.55308  0.20749  Biso   1.000  N
  C275     1.0000 0.87943  0.06473  0.64679  Biso   1.000  C
  C276     1.0000 0.71942  0.62889  0.08705  Biso   1.000  C
  N35      1.0000 0.83005  0.08121  0.59819  Biso   1.000  N
  N36      1.0000 0.64310  0.63240  0.09324  Biso   1.000  N
