data_image0
_cell_length_a       24.681
_cell_length_b       24.681
_cell_length_c       11.009
_cell_angle_alpha    90
_cell_angle_beta     90
_cell_angle_gamma    120

_symmetry_space_group_name_H-M    "P 1"
_symmetry_int_tables_number       1

loop_
  _symmetry_equiv_pos_as_xyz
  'x, y, z'

loop_
  _atom_site_label
  _atom_site_occupancy
  _atom_site_fract_x
  _atom_site_fract_y
  _atom_site_fract_z
  _atom_site_thermal_displace_type
  _atom_site_B_iso_or_equiv
  _atom_site_type_symbol
  C1       1.0000 0.86158  0.81874  0.69143  Biso   1.000  C
  C2       1.0000 0.80505  0.81953  0.65292  Biso   1.000  C
  C3       1.0000 0.86549  0.79764  0.80652  Biso   1.000  C
  C4       1.0000 0.86545  0.79764  0.80652  Biso   1.000  C
  C5       1.0000 0.91126  0.83633  0.61259  Biso   1.000  C
  N1       1.0000 0.79615  0.82613  0.54274  Biso   1.000  N
  H1       1.0000 0.77486  0.81490  0.71169  Biso   1.000  H
  H2       1.0000 0.77488  0.81495  0.71169  Biso   1.000  H
  C6       1.0000 0.91658  0.79333  0.84104  Biso   1.000  C
  H3       1.0000 0.83215  0.78613  0.86229  Biso   1.000  H
  C7       1.0000 0.96335  0.83282  0.64293  Biso   1.000  C
  H4       1.0000 0.90926  0.85153  0.53447  Biso   1.000  H
  C8       1.0000 0.74147  0.83053  0.51049  Biso   1.000  C
  C9       1.0000 0.96536  0.81083  0.75965  Biso   1.000  C
  C10      1.0000 0.92265  0.77111  0.95912  Biso   1.000  C
  C11      1.0000 0.01308  0.85303  0.55455  Biso   1.000  C
  C12      1.0000 0.76186  0.89612  0.46335  Biso   1.000  C
  H5       1.0000 0.71418  0.82150  0.58352  Biso   1.000  H
  C13      1.0000 0.70378  0.78660  0.40812  Biso   1.000  C
  H6       1.0000 0.71416  0.82154  0.58352  Biso   1.000  H
  C14      1.0000 0.70376  0.78664  0.40812  Biso   1.000  C
  H7       1.0000 0.00090  0.80793  0.78318  Biso   1.000  H
  H8       1.0000 0.00086  0.80793  0.78318  Biso   1.000  H
  H9       1.0000 0.96065  0.77223  0.97865  Biso   1.000  H
  N2       1.0000 0.87835  0.75001  0.03924  Biso   1.000  N
  N3       1.0000 0.05777  0.84119  0.55963  Biso   1.000  N
  N4       1.0000 0.05775  0.84124  0.55963  Biso   1.000  N
  H10      1.0000 0.01235  0.87694  0.48751  Biso   1.000  H
  H11      1.0000 0.79678  0.90833  0.40394  Biso   1.000  H
  N5       1.0000 0.78349  0.94220  0.55963  Biso   1.000  N
  C15      1.0000 0.70519  0.88601  0.39604  Biso   1.000  C
  N6       1.0000 0.78347  0.94225  0.55963  Biso   1.000  N
  C16      1.0000 0.70515  0.88601  0.39604  Biso   1.000  C
  H12      1.0000 0.72948  0.77340  0.36152  Biso   1.000  H
  C17      1.0000 0.68429  0.82613  0.32673  Biso   1.000  C
  H13      1.0000 0.66636  0.74903  0.44000  Biso   1.000  H
  H14      1.0000 0.72946  0.77345  0.36152  Biso   1.000  H
  C18      1.0000 0.68425  0.82613  0.32673  Biso   1.000  C
  C19      1.0000 0.89078  0.72933  0.15451  Biso   1.000  C
  C20      1.0000 0.10388  0.86576  0.46335  Biso   1.000  C
  C21      1.0000 0.83997  0.98693  0.55455  Biso   1.000  C
  H15      1.0000 0.67217  0.88171  0.45281  Biso   1.000  H
  H16      1.0000 0.71537  0.92120  0.33981  Biso   1.000  H
  H17      1.0000 0.71535  0.92124  0.33981  Biso   1.000  H
  H18      1.0000 0.70537  0.83483  0.24662  Biso   1.000  H
  H19      1.0000 0.63848  0.80372  0.31392  Biso   1.000  H
  C22      1.0000 0.88045  0.76241  0.26188  Biso   1.000  C
  H20      1.0000 0.93437  0.73654  0.15596  Biso   1.000  H
  C23      1.0000 0.88048  0.76246  0.26188  Biso   1.000  C
  C24      1.0000 0.84419  0.66135  0.18385  Biso   1.000  C
  C25      1.0000 0.16948  0.91090  0.51049  Biso   1.000  C
  H21      1.0000 0.09169  0.88845  0.40394  Biso   1.000  H
  C26      1.0000 0.16947  0.91095  0.51049  Biso   1.000  C
  C27      1.0000 0.11394  0.81911  0.39604  Biso   1.000  C
  H22      1.0000 0.86455  0.98763  0.48751  Biso   1.000  H
  C28      1.0000 0.86943  0.03662  0.64293  Biso   1.000  C
  H23      1.0000 0.83869  0.75951  0.25534  Biso   1.000  H
  C29      1.0000 0.88127  0.72311  0.37006  Biso   1.000  C
  N7       1.0000 0.92949  0.82725  0.26933  Biso   1.000  N
  H24      1.0000 0.83867  0.75955  0.25534  Biso   1.000  H
  C30      1.0000 0.88129  0.72316  0.37006  Biso   1.000  C
  H25      1.0000 0.85447  0.63281  0.13934  Biso   1.000  H
  H26      1.0000 0.80097  0.65092  0.16278  Biso   1.000  H
  C31      1.0000 0.85115  0.65672  0.32265  Biso   1.000  C
  N8       1.0000 0.17387  0.96999  0.54274  Biso   1.000  N
  H27      1.0000 0.17849  0.89261  0.58352  Biso   1.000  H
  N9       1.0000 0.17389  0.97004  0.54274  Biso   1.000  N
  H28      1.0000 0.17845  0.89261  0.58352  Biso   1.000  H
  C32      1.0000 0.21335  0.91713  0.40812  Biso   1.000  C
  H29      1.0000 0.07880  0.79413  0.33981  Biso   1.000  H
  H30      1.0000 0.11828  0.79043  0.45281  Biso   1.000  H
  C33      1.0000 0.17385  0.85813  0.32673  Biso   1.000  C
  H31      1.0000 0.07876  0.79413  0.33981  Biso   1.000  H
  C34      1.0000 0.92506  0.08873  0.61259  Biso   1.000  C
  C35      1.0000 0.84549  0.03460  0.75965  Biso   1.000  C
  C36      1.0000 0.84543  0.03465  0.75965  Biso   1.000  C
  C37      1.0000 0.91307  0.86824  0.26715  Biso   1.000  C
  H32      1.0000 0.92479  0.73771  0.39695  Biso   1.000  H
  H33      1.0000 0.85718  0.72592  0.43937  Biso   1.000  H
  H34      1.0000 0.92477  0.73775  0.39695  Biso   1.000  H
  H35      1.0000 0.85714  0.72592  0.43937  Biso   1.000  H
  H36      1.0000 0.80976  0.63043  0.36080  Biso   1.000  H
  H37      1.0000 0.87798  0.63833  0.34018  Biso   1.000  H
  C38      1.0000 0.18050  0.98553  0.65292  Biso   1.000  C
  C39      1.0000 0.18046  0.98553  0.65292  Biso   1.000  C
  H38      1.0000 0.25097  0.91731  0.44000  Biso   1.000  H
  H39      1.0000 0.22658  0.95605  0.36152  Biso   1.000  H
  H40      1.0000 0.16518  0.87053  0.24662  Biso   1.000  H
  H41      1.0000 0.19631  0.83474  0.31392  Biso   1.000  H
  H42      1.0000 0.19627  0.83474  0.31392  Biso   1.000  H
  C40      1.0000 0.95716  0.13842  0.69143  Biso   1.000  C
  H43      1.0000 0.94225  0.09070  0.53447  Biso   1.000  H
  H44      1.0000 0.94228  0.09075  0.53447  Biso   1.000  H
  H45      1.0000 0.80707  0.99909  0.78318  Biso   1.000  H
  H46      1.0000 0.80705  0.99914  0.78318  Biso   1.000  H
  C41      1.0000 0.87678  0.08340  0.84104  Biso   1.000  C
  C42      1.0000 0.87680  0.08345  0.84104  Biso   1.000  C
  C43      1.0000 0.87672  0.08345  0.84104  Biso   1.000  C
  C44      1.0000 0.95778  0.93570  0.27187  Biso   1.000  C
  C45      1.0000 0.95776  0.93575  0.27187  Biso   1.000  C
  H47      1.0000 0.86964  0.85472  0.26224  Biso   1.000  H
  H48      1.0000 0.18508  0.95993  0.71169  Biso   1.000  H
  C46      1.0000 0.18124  0.04284  0.69143  Biso   1.000  C
  C47      1.0000 0.93220  0.13454  0.80652  Biso   1.000  C
  C48      1.0000 0.93212  0.13454  0.80652  Biso   1.000  C
  C49      1.0000 0.01443  0.19494  0.65292  Biso   1.000  C
  C50      1.0000 0.84845  0.07732  0.95912  Biso   1.000  C
  C51      1.0000 0.93655  0.97799  0.27178  Biso   1.000  C
  C52      1.0000 0.93657  0.97804  0.27178  Biso   1.000  C
  C53      1.0000 0.02195  0.95853  0.27178  Biso   1.000  C
  C54      1.0000 0.20236  0.06782  0.80652  Biso   1.000  C
  C55      1.0000 0.16370  0.07493  0.61259  Biso   1.000  C
  C56      1.0000 0.20232  0.06782  0.80652  Biso   1.000  C
  C57      1.0000 0.16362  0.07493  0.61259  Biso   1.000  C
  H49      1.0000 0.95394  0.16780  0.86229  Biso   1.000  H
  H50      1.0000 0.95397  0.16785  0.86229  Biso   1.000  H
  N10      1.0000 0.02997  0.20382  0.54274  Biso   1.000  N
  H51      1.0000 0.04009  0.22511  0.71169  Biso   1.000  H
  H52      1.0000 0.04001  0.22511  0.71169  Biso   1.000  H
  H53      1.0000 0.81159  0.03933  0.97865  Biso   1.000  H
  H54      1.0000 0.81155  0.03933  0.97865  Biso   1.000  H
  N11      1.0000 0.87170  0.12162  0.03924  Biso   1.000  N
  N12      1.0000 0.87162  0.12162  0.03924  Biso   1.000  N
  C58      1.0000 0.97794  0.04223  0.27187  Biso   1.000  C
  H55      1.0000 0.89287  0.96293  0.27160  Biso   1.000  H
  H56      1.0000 0.03709  0.92990  0.27160  Biso   1.000  H
  H57      1.0000 0.03707  0.92995  0.27160  Biso   1.000  H
  C59      1.0000 0.06427  0.02202  0.27187  Biso   1.000  C
  H58      1.0000 0.21382  0.04602  0.86229  Biso   1.000  H
  C60      1.0000 0.20668  0.12321  0.84104  Biso   1.000  C
  C61      1.0000 0.20660  0.12321  0.84104  Biso   1.000  C
  C62      1.0000 0.16714  0.13051  0.64293  Biso   1.000  C
  C63      1.0000 0.16710  0.13051  0.64293  Biso   1.000  C
  H59      1.0000 0.14848  0.05772  0.53447  Biso   1.000  H
  H60      1.0000 0.14840  0.05772  0.53447  Biso   1.000  H
  C64      1.0000 0.08905  0.25852  0.51049  Biso   1.000  C
  C65      1.0000 0.83856  0.10923  0.15451  Biso   1.000  C
  C66      1.0000 0.95519  0.08691  0.26715  Biso   1.000  C
  C67      1.0000 0.95517  0.08696  0.26715  Biso   1.000  C
  C68      1.0000 0.04150  0.06342  0.27178  Biso   1.000  C
  C69      1.0000 0.04146  0.06342  0.27178  Biso   1.000  C
  C70      1.0000 0.13178  0.04480  0.26715  Biso   1.000  C
  C71      1.0000 0.13176  0.04485  0.26715  Biso   1.000  C
  C72      1.0000 0.22885  0.15152  0.95912  Biso   1.000  C
  C73      1.0000 0.18910  0.15451  0.75965  Biso   1.000  C
  C74      1.0000 0.14693  0.16003  0.55455  Biso   1.000  C
  H61      1.0000 0.10737  0.28584  0.58352  Biso   1.000  H
  C75      1.0000 0.13427  0.23812  0.46335  Biso   1.000  C
  C76      1.0000 0.08286  0.29623  0.40812  Biso   1.000  C
  C77      1.0000 0.08282  0.29623  0.40812  Biso   1.000  C
  C78      1.0000 0.88195  0.11952  0.26188  Biso   1.000  C
  H62      1.0000 0.80213  0.06562  0.15596  Biso   1.000  H
  C79      1.0000 0.81712  0.15582  0.18385  Biso   1.000  C
  N13      1.0000 0.89777  0.07053  0.26933  Biso   1.000  N
  H63      1.0000 0.98508  0.13033  0.26224  Biso   1.000  H
  H64      1.0000 0.07007  0.10712  0.27160  Biso   1.000  H
  N14      1.0000 0.17274  0.10225  0.26933  Biso   1.000  N
  H65      1.0000 0.14530  0.01495  0.26224  Biso   1.000  H
  H66      1.0000 0.22774  0.18843  0.97865  Biso   1.000  H
  N15      1.0000 0.24999  0.12831  0.03924  Biso   1.000  N
  N16      1.0000 0.24991  0.12831  0.03924  Biso   1.000  N
  H67      1.0000 0.19206  0.19292  0.78318  Biso   1.000  H
  N17      1.0000 0.15872  0.21650  0.55963  Biso   1.000  N
  N18      1.0000 0.15874  0.21655  0.55963  Biso   1.000  N
  H68      1.0000 0.12308  0.13543  0.48751  Biso   1.000  H
  C80      1.0000 0.18086  0.29482  0.39604  Biso   1.000  C
  H69      1.0000 0.11151  0.20322  0.40394  Biso   1.000  H
  C81      1.0000 0.18082  0.29482  0.39604  Biso   1.000  C
  H70      1.0000 0.08267  0.33361  0.44000  Biso   1.000  H
  H71      1.0000 0.04398  0.27049  0.36152  Biso   1.000  H
  C82      1.0000 0.14184  0.31573  0.32673  Biso   1.000  C
  H72      1.0000 0.08269  0.33365  0.44000  Biso   1.000  H
  H73      1.0000 0.04392  0.27054  0.36152  Biso   1.000  H
  H74      1.0000 0.92083  0.16130  0.25534  Biso   1.000  H
  C83      1.0000 0.84189  0.11872  0.37006  Biso   1.000  C
  H75      1.0000 0.92085  0.16134  0.25534  Biso   1.000  H
  C84      1.0000 0.84181  0.11872  0.37006  Biso   1.000  C
  H76      1.0000 0.77835  0.14553  0.13934  Biso   1.000  H
  C85      1.0000 0.80558  0.14885  0.32265  Biso   1.000  C
  H77      1.0000 0.84994  0.19901  0.16278  Biso   1.000  H
  C86      1.0000 0.80555  0.14881  0.32265  Biso   1.000  C
  H78      1.0000 0.84996  0.19905  0.16278  Biso   1.000  H
  C87      1.0000 0.23755  0.11802  0.26188  Biso   1.000  C
  C88      1.0000 0.27068  0.16144  0.15451  Biso   1.000  C
  H79      1.0000 0.20586  0.28462  0.33981  Biso   1.000  H
  H80      1.0000 0.20954  0.32781  0.45281  Biso   1.000  H
  H81      1.0000 0.20953  0.32785  0.45281  Biso   1.000  H
  H82      1.0000 0.12943  0.29463  0.24662  Biso   1.000  H
  H83      1.0000 0.16523  0.36154  0.31392  Biso   1.000  H
  H84      1.0000 0.81292  0.07521  0.39695  Biso   1.000  H
  H85      1.0000 0.86872  0.14282  0.43937  Biso   1.000  H
  H86      1.0000 0.86880  0.14282  0.43937  Biso   1.000  H
  H87      1.0000 0.82062  0.19021  0.36080  Biso   1.000  H
  H88      1.0000 0.76034  0.12200  0.34018  Biso   1.000  H
  H89      1.0000 0.76037  0.12204  0.34018  Biso   1.000  H
  C89      1.0000 0.27688  0.15812  0.37006  Biso   1.000  C
  H90      1.0000 0.24047  0.07914  0.25534  Biso   1.000  H
  C90      1.0000 0.27680  0.15812  0.37006  Biso   1.000  C
  H91      1.0000 0.26344  0.19784  0.15596  Biso   1.000  H
  C91      1.0000 0.33862  0.18282  0.18385  Biso   1.000  C
  C92      1.0000 0.34325  0.19442  0.32265  Biso   1.000  C
  H92      1.0000 0.27405  0.13121  0.43937  Biso   1.000  H
  H93      1.0000 0.26229  0.18703  0.39695  Biso   1.000  H
  H94      1.0000 0.26225  0.18703  0.39695  Biso   1.000  H
  H95      1.0000 0.36717  0.22160  0.13934  Biso   1.000  H
  H96      1.0000 0.34909  0.15002  0.16278  Biso   1.000  H
  H97      1.0000 0.36712  0.22165  0.13934  Biso   1.000  H
  H98      1.0000 0.34905  0.15002  0.16278  Biso   1.000  H
  H99      1.0000 0.36163  0.23962  0.34018  Biso   1.000  H
  H100     1.0000 0.36955  0.17936  0.36080  Biso   1.000  H
  C93      1.0000 0.67200  0.84952  0.85049  Biso   1.000  C
  C94      1.0000 0.60399  0.82809  0.82124  Biso   1.000  C
  H101     1.0000 0.70050  0.88831  0.80598  Biso   1.000  H
  H102     1.0000 0.68240  0.81668  0.82941  Biso   1.000  H
  C95      1.0000 0.67660  0.86108  0.98928  Biso   1.000  C
  N19      1.0000 0.58332  0.79502  0.70588  Biso   1.000  N
  C96      1.0000 0.57090  0.78468  0.92851  Biso   1.000  C
  H103     1.0000 0.59679  0.86449  0.82260  Biso   1.000  H
  C97      1.0000 0.61021  0.82482  0.03670  Biso   1.000  C
  H104     1.0000 0.70290  0.84601  0.02752  Biso   1.000  H
  H105     1.0000 0.69501  0.90632  0.00681  Biso   1.000  H
  C98      1.0000 0.56223  0.81822  0.62576  Biso   1.000  C
  N20      1.0000 0.50609  0.76891  0.93596  Biso   1.000  N
  H106     1.0000 0.57378  0.74580  0.92197  Biso   1.000  H
  H107     1.0000 0.59560  0.85369  0.06358  Biso   1.000  H
  H108     1.0000 0.60742  0.79792  0.10600  Biso   1.000  H
  C99      1.0000 0.54001  0.78992  0.50768  Biso   1.000  C
  H109     1.0000 0.56109  0.85509  0.64529  Biso   1.000  H
  C100     1.0000 0.46511  0.71151  0.93378  Biso   1.000  C
  C101     1.0000 0.53571  0.73448  0.47316  Biso   1.000  C
  C102     1.0000 0.52252  0.82122  0.42629  Biso   1.000  C
  C103     1.0000 0.39760  0.68872  0.93850  Biso   1.000  C
  H110     1.0000 0.47860  0.68161  0.92888  Biso   1.000  H
  C104     1.0000 0.51459  0.70949  0.35807  Biso   1.000  C
  H111     1.0000 0.54720  0.71272  0.52902  Biso   1.000  H
  C105     1.0000 0.50051  0.79722  0.30956  Biso   1.000  C
  H112     1.0000 0.52541  0.85958  0.44981  Biso   1.000  H
  C106     1.0000 0.35530  0.62519  0.93841  Biso   1.000  C
  C107     1.0000 0.37480  0.73008  0.93841  Biso   1.000  C
  C108     1.0000 0.51381  0.65218  0.31956  Biso   1.000  C
  C109     1.0000 0.49700  0.74159  0.27932  Biso   1.000  C
  C110     1.0000 0.48028  0.82669  0.22118  Biso   1.000  C
  C111     1.0000 0.29111  0.60240  0.93850  Biso   1.000  C
  H113     1.0000 0.37042  0.59660  0.93832  Biso   1.000  H
  C112     1.0000 0.31129  0.70889  0.93850  Biso   1.000  C
  H114     1.0000 0.40338  0.77378  0.93832  Biso   1.000  H
  N21      1.0000 0.50720  0.63670  0.20937  Biso   1.000  N
  H115     1.0000 0.51839  0.62659  0.37842  Biso   1.000  H
  H116     1.0000 0.48182  0.72442  0.20111  Biso   1.000  H
  N22      1.0000 0.49209  0.88321  0.22627  Biso   1.000  N
  H117     1.0000 0.45639  0.80208  0.15424  Biso   1.000  H
  C113     1.0000 0.24638  0.53489  0.93378  Biso   1.000  C
  C114     1.0000 0.26988  0.64470  0.93841  Biso   1.000  C
  C115     1.0000 0.28852  0.75361  0.93378  Biso   1.000  C
  C116     1.0000 0.50281  0.57761  0.17722  Biso   1.000  C
  C117     1.0000 0.46760  0.90482  0.12998  Biso   1.000  C
  N23      1.0000 0.26280  0.49391  0.93596  Biso   1.000  N
  H118     1.0000 0.20301  0.52142  0.92888  Biso   1.000  H
  H119     1.0000 0.22618  0.62959  0.93832  Biso   1.000  H
  N24      1.0000 0.23108  0.73719  0.93596  Biso   1.000  N
  H120     1.0000 0.31839  0.79698  0.92888  Biso   1.000  H
  C118     1.0000 0.43719  0.53241  0.12998  Biso   1.000  C
  H121     1.0000 0.51182  0.55931  0.25016  Biso   1.000  H
  C119     1.0000 0.54670  0.58378  0.07476  Biso   1.000  C
  H122     1.0000 0.44493  0.86992  0.07058  Biso   1.000  H
  C120     1.0000 0.42242  0.92522  0.17722  Biso   1.000  C
  C121     1.0000 0.51421  0.96148  0.06268  Biso   1.000  C
  C122     1.0000 0.21379  0.42911  0.92851  Biso   1.000  C
  C123     1.0000 0.21532  0.78622  0.92851  Biso   1.000  C
  N25      1.0000 0.39110  0.50790  0.22627  Biso   1.000  N
  H123     1.0000 0.42499  0.55510  0.07058  Biso   1.000  H
  C124     1.0000 0.44732  0.48582  0.06268  Biso   1.000  C
  C125     1.0000 0.50720  0.52479  0.99337  Biso   1.000  C
  H124     1.0000 0.58430  0.58402  0.10673  Biso   1.000  H
  H125     1.0000 0.55989  0.62271  0.02816  Biso   1.000  H
  N26      1.0000 0.36328  0.87048  0.20937  Biso   1.000  N
  H126     1.0000 0.44071  0.95250  0.25016  Biso   1.000  H
  C126     1.0000 0.41621  0.96288  0.07476  Biso   1.000  C
  H127     1.0000 0.53917  0.95128  0.00654  Biso   1.000  H
  H128     1.0000 0.54292  0.99451  0.11954  Biso   1.000  H
  C127     1.0000 0.47519  0.98239  0.99337  Biso   1.000  C
  C128     1.0000 0.22409  0.39599  0.82124  Biso   1.000  C
  H129     1.0000 0.17202  0.42621  0.92197  Biso   1.000  H
  C129     1.0000 0.21460  0.38981  0.03670  Biso   1.000  C
  C130     1.0000 0.17190  0.77588  0.82124  Biso   1.000  C
  H130     1.0000 0.25420  0.82800  0.92197  Biso   1.000  H
  C131     1.0000 0.17519  0.78538  0.03670  Biso   1.000  C
  C132     1.0000 0.34639  0.51969  0.22118  Biso   1.000  C
  H131     1.0000 0.41211  0.46079  0.00654  Biso   1.000  H
  H132     1.0000 0.45159  0.45709  0.11954  Biso   1.000  H
  H133     1.0000 0.49849  0.53719  0.91334  Biso   1.000  H
  H134     1.0000 0.52962  0.50139  0.98056  Biso   1.000  H
  C133     1.0000 0.34778  0.86159  0.31956  Biso   1.000  C
  H135     1.0000 0.37731  0.93720  0.02816  Biso   1.000  H
  H136     1.0000 0.41596  0.00031  0.10673  Biso   1.000  H
  H137     1.0000 0.46278  0.96129  0.91334  Biso   1.000  H
  H138     1.0000 0.49854  0.02819  0.98056  Biso   1.000  H
  N27      1.0000 0.21172  0.41671  0.70588  Biso   1.000  N
  H139     1.0000 0.26768  0.40319  0.82260  Biso   1.000  H
  C134     1.0000 0.17750  0.32801  0.85049  Biso   1.000  C
  C135     1.0000 0.18450  0.32338  0.98928  Biso   1.000  C
  H140     1.0000 0.25812  0.40441  0.06358  Biso   1.000  H
  H141     1.0000 0.19052  0.39262  0.10600  Biso   1.000  H
  N28      1.0000 0.20501  0.78828  0.70588  Biso   1.000  N
  H142     1.0000 0.13548  0.73228  0.82260  Biso   1.000  H
  C136     1.0000 0.15047  0.82248  0.85049  Biso   1.000  C
  C137     1.0000 0.13892  0.81551  0.98928  Biso   1.000  C
  H143     1.0000 0.14629  0.74192  0.06358  Biso   1.000  H
  H144     1.0000 0.20209  0.80952  0.10600  Biso   1.000  H
  C138     1.0000 0.29670  0.49948  0.30956  Biso   1.000  C
  H145     1.0000 0.34570  0.54359  0.15424  Biso   1.000  H
  C139     1.0000 0.29049  0.80512  0.35807  Biso   1.000  C
  H146     1.0000 0.37342  0.89182  0.37842  Biso   1.000  H
  C140     1.0000 0.25602  0.43781  0.62576  Biso   1.000  C
  H147     1.0000 0.18780  0.29952  0.80598  Biso   1.000  H
  H148     1.0000 0.13430  0.31762  0.82941  Biso   1.000  H
  H149     1.0000 0.14307  0.29708  0.02752  Biso   1.000  H
  H150     1.0000 0.21129  0.30499  0.00681  Biso   1.000  H
  C141     1.0000 0.18182  0.74402  0.62576  Biso   1.000  C
  H151     1.0000 0.11170  0.81219  0.80598  Biso   1.000  H
  H152     1.0000 0.18331  0.86571  0.82941  Biso   1.000  H
  H153     1.0000 0.15399  0.85691  0.02752  Biso   1.000  H
  H154     1.0000 0.09371  0.78870  0.00681  Biso   1.000  H
  C142     1.0000 0.29871  0.47749  0.42629  Biso   1.000  C
  C143     1.0000 0.24460  0.50299  0.27932  Biso   1.000  C
  C144     1.0000 0.25841  0.75539  0.27932  Biso   1.000  C
  C145     1.0000 0.26551  0.80119  0.47316  Biso   1.000  C
  C146     1.0000 0.24989  0.45999  0.50768  Biso   1.000  C
  H155     1.0000 0.29400  0.43889  0.64529  Biso   1.000  H
  C147     1.0000 0.21011  0.75010  0.50768  Biso   1.000  C
  H156     1.0000 0.14490  0.70599  0.64529  Biso   1.000  H
  H157     1.0000 0.33421  0.47459  0.44981  Biso   1.000  H
  C148     1.0000 0.19489  0.48539  0.35807  Biso   1.000  C
  H158     1.0000 0.24260  0.51819  0.20111  Biso   1.000  H
  C149     1.0000 0.20280  0.70332  0.30956  Biso   1.000  C
  H159     1.0000 0.27559  0.75740  0.20111  Biso   1.000  H
  H160     1.0000 0.28731  0.83450  0.52902  Biso   1.000  H
  C150     1.0000 0.19880  0.46429  0.47316  Biso   1.000  C
  C151     1.0000 0.17882  0.70131  0.42629  Biso   1.000  C
  C152     1.0000 0.13840  0.48619  0.31956  Biso   1.000  C
  C153     1.0000 0.17327  0.65359  0.22118  Biso   1.000  C
  H161     1.0000 0.16550  0.45279  0.52902  Biso   1.000  H
  H162     1.0000 0.14040  0.66580  0.44981  Biso   1.000  H
  N29      1.0000 0.12950  0.49279  0.20937  Biso   1.000  N
  H163     1.0000 0.10819  0.48160  0.37842  Biso   1.000  H
  N30      1.0000 0.11682  0.60891  0.22627  Biso   1.000  N
  H164     1.0000 0.19789  0.65429  0.15424  Biso   1.000  H
  C154     1.0000 0.07477  0.49718  0.17722  Biso   1.000  C
  C155     1.0000 0.09517  0.56278  0.12998  Biso   1.000  C
  H165     1.0000 0.04751  0.48820  0.25016  Biso   1.000  H
  C156     1.0000 0.03711  0.45330  0.07476  Biso   1.000  C
  H166     1.0000 0.13009  0.57499  0.07058  Biso   1.000  H
  C157     1.0000 0.03852  0.55272  0.06268  Biso   1.000  C
  H167     1.0000 0.06281  0.44011  0.02816  Biso   1.000  H
  H168     1.0000 0.99971  0.41568  0.10673  Biso   1.000  H
  C158     1.0000 0.01759  0.49279  0.99337  Biso   1.000  C
  H169     1.0000 0.04870  0.58790  0.00654  Biso   1.000  H
  H170     1.0000 0.00550  0.54841  0.11954  Biso   1.000  H
  H171     1.0000 0.97181  0.47042  0.98056  Biso   1.000  H
  H172     1.0000 0.03868  0.50149  0.91334  Biso   1.000  H
  C159     1.0000 0.54863  0.45288  0.59515  Biso   1.000  C
  C160     1.0000 0.50524  0.44259  0.48787  Biso   1.000  C
  N31      1.0000 0.56443  0.40385  0.60269  Biso   1.000  N
  H173     1.0000 0.58751  0.49466  0.58870  Biso   1.000  H
  C161     1.0000 0.50853  0.45208  0.70333  Biso   1.000  C
  N32      1.0000 0.53834  0.45498  0.37260  Biso   1.000  N
  H174     1.0000 0.46885  0.39898  0.48924  Biso   1.000  H
  C162     1.0000 0.48384  0.48918  0.51712  Biso   1.000  C
  C163     1.0000 0.62183  0.42027  0.60051  Biso   1.000  C
  C164     1.0000 0.47223  0.48217  0.65601  Biso   1.000  C
  H175     1.0000 0.47964  0.40857  0.73031  Biso   1.000  H
  H176     1.0000 0.53544  0.47618  0.77264  Biso   1.000  H
  C165     1.0000 0.51513  0.41068  0.29249  Biso   1.000  C
  H177     1.0000 0.44501  0.47884  0.47270  Biso   1.000  H
  H178     1.0000 0.51662  0.53237  0.49605  Biso   1.000  H
  C166     1.0000 0.64466  0.37559  0.60514  Biso   1.000  C
  H179     1.0000 0.65176  0.46369  0.59560  Biso   1.000  H
  H180     1.0000 0.48734  0.52357  0.69416  Biso   1.000  H
  H181     1.0000 0.42702  0.45536  0.67345  Biso   1.000  H
  C167     1.0000 0.54342  0.41676  0.17440  Biso   1.000  C
  H182     1.0000 0.47823  0.37269  0.31193  Biso   1.000  H
  C168     1.0000 0.70814  0.39678  0.60505  Biso   1.000  C
  C169     1.0000 0.60323  0.31135  0.60505  Biso   1.000  C
  C170     1.0000 0.59882  0.46785  0.13989  Biso   1.000  C
  C171     1.0000 0.51213  0.36796  0.09292  Biso   1.000  C
  C172     1.0000 0.73095  0.35538  0.60514  Biso   1.000  C
  H183     1.0000 0.73675  0.44048  0.60496  Biso   1.000  H
  C173     1.0000 0.62442  0.26906  0.60514  Biso   1.000  C
  H184     1.0000 0.55955  0.29629  0.60496  Biso   1.000  H
  H185     1.0000 0.62062  0.50116  0.19566  Biso   1.000  H
  C174     1.0000 0.62384  0.47178  0.02480  Biso   1.000  C
  H186     1.0000 0.47371  0.33245  0.11645  Biso   1.000  H
  C175     1.0000 0.53615  0.36998  0.97629  Biso   1.000  C
  C176     1.0000 0.68861  0.29184  0.60505  Biso   1.000  C
  C177     1.0000 0.79842  0.37816  0.60051  Biso   1.000  C
  C178     1.0000 0.57973  0.20155  0.60051  Biso   1.000  C
  C179     1.0000 0.59172  0.42205  0.94595  Biso   1.000  C
  C180     1.0000 0.68113  0.52825  0.98628  Biso   1.000  C
  C181     1.0000 0.50662  0.32024  0.88791  Biso   1.000  C
  H187     1.0000 0.70373  0.26326  0.60496  Biso   1.000  H
  N33      1.0000 0.83944  0.43557  0.60269  Biso   1.000  N
  H188     1.0000 0.81195  0.34827  0.59560  Biso   1.000  H
  N34      1.0000 0.59615  0.16057  0.60269  Biso   1.000  N
  H189     1.0000 0.53632  0.18808  0.59560  Biso   1.000  H
  H190     1.0000 0.60893  0.42406  0.86774  Biso   1.000  H
  H191     1.0000 0.70673  0.55847  0.04505  Biso   1.000  H
  N35      1.0000 0.69665  0.53719  0.87610  Biso   1.000  N
  N36      1.0000 0.45013  0.27556  0.89300  Biso   1.000  N
  H192     1.0000 0.53120  0.32095  0.82087  Biso   1.000  H
  C182     1.0000 0.90423  0.45138  0.59515  Biso   1.000  C
  C183     1.0000 0.54713  0.09577  0.59515  Biso   1.000  C
  C184     1.0000 0.75573  0.59188  0.84386  Biso   1.000  C
  C185     1.0000 0.42854  0.22948  0.79671  Biso   1.000  C
  H193     1.0000 0.90713  0.41246  0.58870  Biso   1.000  H
  C186     1.0000 0.93734  0.49475  0.48787  Biso   1.000  C
  C187     1.0000 0.94352  0.49148  0.70333  Biso   1.000  C
  H194     1.0000 0.50533  0.09287  0.58870  Biso   1.000  H
  C188     1.0000 0.55744  0.06265  0.48787  Biso   1.000  C
  C189     1.0000 0.54795  0.05647  0.70333  Biso   1.000  C
  C190     1.0000 0.80095  0.57148  0.79671  Biso   1.000  C
  H195     1.0000 0.77402  0.61915  0.91689  Biso   1.000  H
  C191     1.0000 0.74954  0.62959  0.74148  Biso   1.000  C
  H196     1.0000 0.46343  0.24164  0.73731  Biso   1.000  H
  C192     1.0000 0.40815  0.16389  0.84386  Biso   1.000  C
  C193     1.0000 0.37183  0.21937  0.72940  Biso   1.000  C
  N37      1.0000 0.91663  0.46167  0.37260  Biso   1.000  N
  H197     1.0000 0.93013  0.53115  0.48924  Biso   1.000  H
  C194     1.0000 0.00534  0.51618  0.51712  Biso   1.000  C
  H198     1.0000 0.92893  0.52039  0.73031  Biso   1.000  H
  H199     1.0000 0.94073  0.46458  0.77264  Biso   1.000  H
  C195     1.0000 0.00993  0.52778  0.65601  Biso   1.000  C
  N38      1.0000 0.54503  0.08337  0.37260  Biso   1.000  N
  H200     1.0000 0.60103  0.06985  0.48924  Biso   1.000  H
  C196     1.0000 0.51089  0.99467  0.51712  Biso   1.000  C
  H201     1.0000 0.59143  0.07107  0.73031  Biso   1.000  H
  H202     1.0000 0.52382  0.05928  0.77264  Biso   1.000  H
  C197     1.0000 0.51783  0.99008  0.65601  Biso   1.000  C
  N39      1.0000 0.82544  0.54986  0.89300  Biso   1.000  N
  H203     1.0000 0.77824  0.53658  0.73731  Biso   1.000  H
  C198     1.0000 0.84754  0.62818  0.72940  Biso   1.000  C
  H204     1.0000 0.74935  0.66697  0.77337  Biso   1.000  H
  H205     1.0000 0.71062  0.60385  0.69489  Biso   1.000  H
  C199     1.0000 0.80854  0.64905  0.66010  Biso   1.000  C
  N40      1.0000 0.46283  0.15949  0.87610  Biso   1.000  N
  H206     1.0000 0.38082  0.15486  0.91689  Biso   1.000  H
  C200     1.0000 0.37042  0.11996  0.74148  Biso   1.000  C
  C201     1.0000 0.35093  0.15949  0.66010  Biso   1.000  C
  H207     1.0000 0.38201  0.25456  0.67318  Biso   1.000  H
  H208     1.0000 0.33885  0.21507  0.78617  Biso   1.000  H
  C202     1.0000 0.89553  0.48488  0.29249  Biso   1.000  C
  H209     1.0000 0.03381  0.55496  0.47270  Biso   1.000  H
  H210     1.0000 0.01573  0.48338  0.49605  Biso   1.000  H
  H211     1.0000 0.03625  0.51267  0.69416  Biso   1.000  H
  H212     1.0000 0.02835  0.57298  0.67345  Biso   1.000  H
  C203     1.0000 0.58933  0.10447  0.29249  Biso   1.000  C
  H213     1.0000 0.52115  0.96617  0.47270  Biso   1.000  H
  H214     1.0000 0.46765  0.98428  0.49605  Biso   1.000  H
  H215     1.0000 0.47649  0.96379  0.69416  Biso   1.000  H
  H216     1.0000 0.54468  0.97165  0.67345  Biso   1.000  H
  C204     1.0000 0.81363  0.49335  0.88791  Biso   1.000  C
  H217     1.0000 0.87254  0.61798  0.67318  Biso   1.000  H
  H218     1.0000 0.87623  0.66117  0.78617  Biso   1.000  H
  H219     1.0000 0.79613  0.62795  0.57998  Biso   1.000  H
  H220     1.0000 0.83193  0.69485  0.64729  Biso   1.000  H
  C205     1.0000 0.47171  0.15285  0.98628  Biso   1.000  C
  H221     1.0000 0.33304  0.08239  0.77337  Biso   1.000  H
  H222     1.0000 0.39611  0.10676  0.69489  Biso   1.000  H
  H223     1.0000 0.37203  0.16815  0.57998  Biso   1.000  H
  H224     1.0000 0.30516  0.13708  0.64729  Biso   1.000  H
  C206     1.0000 0.87332  0.45657  0.17440  Biso   1.000  C
  H225     1.0000 0.89444  0.52175  0.31193  Biso   1.000  H
  C207     1.0000 0.58324  0.12665  0.17440  Biso   1.000  C
  H226     1.0000 0.62730  0.10555  0.31193  Biso   1.000  H
  C208     1.0000 0.83382  0.46387  0.97629  Biso   1.000  C
  H227     1.0000 0.78976  0.46879  0.82087  Biso   1.000  H
  C209     1.0000 0.52824  0.15205  0.02480  Biso   1.000  C
  H228     1.0000 0.44154  0.14826  0.04505  Biso   1.000  H
  C210     1.0000 0.85582  0.48787  0.09292  Biso   1.000  C
  C211     1.0000 0.86904  0.40118  0.13989  Biso   1.000  C
  C212     1.0000 0.53211  0.13095  0.13989  Biso   1.000  C
  C213     1.0000 0.63202  0.14414  0.09292  Biso   1.000  C
  C214     1.0000 0.83031  0.40825  0.94595  Biso   1.000  C
  C215     1.0000 0.57794  0.16969  0.94595  Biso   1.000  C
  H229     1.0000 0.85874  0.52628  0.11645  Biso   1.000  H
  C216     1.0000 0.84794  0.37615  0.02480  Biso   1.000  C
  H230     1.0000 0.88055  0.37938  0.19566  Biso   1.000  H
  H231     1.0000 0.49883  0.11949  0.19566  Biso   1.000  H
  C217     1.0000 0.63003  0.16618  0.97629  Biso   1.000  C
  H232     1.0000 0.66752  0.14124  0.11645  Biso   1.000  H
  H233     1.0000 0.81512  0.39108  0.86774  Biso   1.000  H
  H234     1.0000 0.57591  0.18485  0.86774  Biso   1.000  H
  C218     1.0000 0.84714  0.31889  0.98628  Biso   1.000  C
  C219     1.0000 0.67974  0.18634  0.88791  Biso   1.000  C
  H235     1.0000 0.85174  0.29325  0.04505  Biso   1.000  H
  N41      1.0000 0.84055  0.30335  0.87610  Biso   1.000  N
  N42      1.0000 0.72441  0.17455  0.89300  Biso   1.000  N
  H236     1.0000 0.67901  0.21025  0.82087  Biso   1.000  H
  C220     1.0000 0.83612  0.24426  0.84386  Biso   1.000  C
  C221     1.0000 0.77054  0.19907  0.79671  Biso   1.000  C
  H237     1.0000 0.84513  0.22597  0.91689  Biso   1.000  H
  C222     1.0000 0.88003  0.25049  0.74148  Biso   1.000  C
  H238     1.0000 0.75834  0.22176  0.73731  Biso   1.000  H
  C223     1.0000 0.78062  0.15247  0.72940  Biso   1.000  C
  H239     1.0000 0.91765  0.25067  0.77337  Biso   1.000  H
  H240     1.0000 0.89323  0.28937  0.69489  Biso   1.000  H
  C224     1.0000 0.84051  0.19144  0.66010  Biso   1.000  C
  H241     1.0000 0.74544  0.12749  0.67318  Biso   1.000  H
  H242     1.0000 0.78494  0.12375  0.78617  Biso   1.000  H
  H243     1.0000 0.83186  0.20389  0.57998  Biso   1.000  H
  H244     1.0000 0.86292  0.16805  0.64729  Biso   1.000  H
