data_image0
_cell_length_a       13.575
_cell_length_b       29.363
_cell_length_c       14.231
_cell_angle_alpha    90
_cell_angle_beta     111.9
_cell_angle_gamma    90

_symmetry_space_group_name_H-M    "P 1"
_symmetry_int_tables_number       1

loop_
  _symmetry_equiv_pos_as_xyz
  'x, y, z'

loop_
  _atom_site_label
  _atom_site_occupancy
  _atom_site_fract_x
  _atom_site_fract_y
  _atom_site_fract_z
  _atom_site_thermal_displace_type
  _atom_site_B_iso_or_equiv
  _atom_site_type_symbol
  C1       1.0000 0.50807  0.43790  0.50265  Biso   1.000  C
  C2       1.0000 0.40724  0.44849  0.48591  Biso   1.000  C
  C3       1.0000 0.52789  0.45210  0.41487  Biso   1.000  C
  H1       1.0000 0.55723  0.42370  0.56149  Biso   1.000  H
  C4       1.0000 0.34104  0.44379  0.54779  Biso   1.000  C
  O1       1.0000 0.35920  0.46725  0.39208  Biso   1.000  O
  C5       1.0000 0.43469  0.46960  0.35095  Biso   1.000  C
  H2       1.0000 0.59258  0.44978  0.40397  Biso   1.000  H
  N1       1.0000 0.26556  0.40398  0.51507  Biso   1.000  N
  H3       1.0000 0.38786  0.43991  0.61966  Biso   1.000  H
  H4       1.0000 0.29976  0.47219  0.54226  Biso   1.000  H
  C6       1.0000 0.40275  0.49161  0.24970  Biso   1.000  C
  C7       1.0000 0.20884  0.39550  0.58497  Biso   1.000  C
  H5       1.0000 0.30304  0.37830  0.51219  Biso   1.000  H
  H6       1.0000 0.21660  0.40949  0.45107  Biso   1.000  H
  N2       1.0000 0.38436  0.45707  0.16836  Biso   1.000  N
  H7       1.0000 0.45921  0.51289  0.24939  Biso   1.000  H
  H8       1.0000 0.33689  0.50942  0.23629  Biso   1.000  H
  C8       1.0000 0.17276  0.34731  0.57861  Biso   1.000  C
  H9       1.0000 0.25679  0.40241  0.65541  Biso   1.000  H
  H10      1.0000 0.14666  0.41600  0.56725  Biso   1.000  H
  C9       1.0000 0.36912  0.47808  0.06778  Biso   1.000  C
  H11      1.0000 0.44151  0.43759  0.18661  Biso   1.000  H
  H12      1.0000 0.32519  0.44021  0.16230  Biso   1.000  H
  N3       1.0000 0.10546  0.33147  0.47599  Biso   1.000  N
  H13      1.0000 0.13253  0.34339  0.62360  Biso   1.000  H
  H14      1.0000 0.23617  0.32738  0.60474  Biso   1.000  H
  C10      1.0000 0.39713  0.44508  0.00114  Biso   1.000  C
  H15      1.0000 0.29418  0.48769  0.03400  Biso   1.000  H
  H16      1.0000 0.41437  0.50550  0.07839  Biso   1.000  H
  C11      1.0000 0.09403  0.28189  0.48144  Biso   1.000  C
  C12      1.0000 0.00169  0.35402  0.44365  Biso   1.000  C
  N4       1.0000 0.32009  0.40749  0.96236  Biso   1.000  N
  H17      1.0000 0.46797  0.43201  0.03968  Biso   1.000  H
  H18      1.0000 0.40201  0.46201  0.94259  Biso   1.000  H
  C13      1.0000 0.18914  0.25549  0.48372  Biso   1.000  C
  H19      1.0000 0.07982  0.27460  0.54324  Biso   1.000  H
  H20      1.0000 0.03167  0.27191  0.42237  Biso   1.000  H
  H21      1.0000 0.01347  0.38729  0.44835  Biso   1.000  H
  C14      1.0000 0.92492  0.34308  0.33831  Biso   1.000  C
  H22      1.0000 0.96787  0.34581  0.49205  Biso   1.000  H
  C15      1.0000 0.37142  0.36859  0.93275  Biso   1.000  C
  C16      1.0000 0.23321  0.42468  0.87186  Biso   1.000  C
  N5       1.0000 0.20877  0.26016  0.38791  Biso   1.000  N
  H23      1.0000 0.17875  0.22290  0.49538  Biso   1.000  H
  H24      1.0000 0.25248  0.26629  0.54097  Biso   1.000  H
  N6       1.0000 0.95081  0.36304  0.25401  Biso   1.000  N
  H25      1.0000 0.85349  0.35381  0.33179  Biso   1.000  H
  H26      1.0000 0.92101  0.30951  0.33020  Biso   1.000  H
  C17      1.0000 0.44149  0.34121  0.02227  Biso   1.000  C
  H27      1.0000 0.31582  0.34850  0.88663  Biso   1.000  H
  H28      1.0000 0.41474  0.38021  0.89526  Biso   1.000  H
  H29      1.0000 0.21308  0.45551  0.88670  Biso   1.000  H
  H30      1.0000 0.25922  0.42761  0.81574  Biso   1.000  H
  C18      1.0000 0.13608  0.39488  0.83785  Biso   1.000  C
  C19      1.0000 0.28876  0.22562  0.38450  Biso   1.000  C
  H31      1.0000 0.14619  0.25600  0.33338  Biso   1.000  H
  H32      1.0000 0.23336  0.28900  0.38375  Biso   1.000  H
  H33      1.0000 0.01535  0.35248  0.25629  Biso   1.000  H
  C20      1.0000 0.86368  0.34891  0.15609  Biso   1.000  C
  H34      1.0000 0.95401  0.39431  0.25916  Biso   1.000  H
  N7       1.0000 0.37778  0.31431  0.06922  Biso   1.000  N
  H35      1.0000 0.48993  0.36199  0.07361  Biso   1.000  H
  H36      1.0000 0.48552  0.32010  0.00000  Biso   1.000  H
  H37      1.0000 0.15668  0.36331  0.82892  Biso   1.000  H
  H38      1.0000 0.08561  0.40582  0.77151  Biso   1.000  H
  N8       1.0000 0.08351  0.39519  0.91215  Biso   1.000  N
  C21      1.0000 0.30885  0.22613  0.28968  Biso   1.000  C
  H39      1.0000 0.26367  0.19491  0.39382  Biso   1.000  H
  H40      1.0000 0.35659  0.23131  0.44191  Biso   1.000  H
  C22      1.0000 0.86533  0.37098  0.06422  Biso   1.000  C
  H41      1.0000 0.79438  0.35531  0.16139  Biso   1.000  H
  H42      1.0000 0.86837  0.31550  0.14829  Biso   1.000  H
  C23      1.0000 0.44475  0.28631  0.15647  Biso   1.000  C
  H43      1.0000 0.33193  0.29541  0.02090  Biso   1.000  H
  H44      1.0000 0.33766  0.33399  0.09058  Biso   1.000  H
  C24      1.0000 0.98398  0.36689  0.87746  Biso   1.000  C
  H45      1.0000 0.12979  0.38419  0.97304  Biso   1.000  H
  H46      1.0000 0.06680  0.42479  0.92215  Biso   1.000  H
  C25      1.0000 0.28609  0.19651  0.21281  Biso   1.000  C
  O2       1.0000 0.36796  0.26145  0.27620  Biso   1.000  O
  C26      1.0000 0.80009  0.40139  0.00023  Biso   1.000  C
  O3       1.0000 0.93720  0.35555  0.02552  Biso   1.000  O
  C27      1.0000 0.38140  0.25249  0.18737  Biso   1.000  C
  H47      1.0000 0.48217  0.30651  0.21448  Biso   1.000  H
  H48      1.0000 0.49907  0.27010  0.13806  Biso   1.000  H
  H49      1.0000 0.94338  0.37251  0.80453  Biso   1.000  H
  C28      1.0000 0.91700  0.37809  0.93563  Biso   1.000  C
  H50      1.0000 0.00312  0.33420  0.88610  Biso   1.000  H
  C29      1.0000 0.33341  0.21350  0.14677  Biso   1.000  C
  H51      1.0000 0.24589  0.16929  0.20441  Biso   1.000  H
  C30      1.0000 0.83347  0.40541  0.91700  Biso   1.000  C
  H52      1.0000 0.74288  0.41709  0.00879  Biso   1.000  H
  H53      1.0000 0.33136  0.19991  0.08558  Biso   1.000  H
  H54      1.0000 0.80207  0.42400  0.85891  Biso   1.000  H
  C31      1.0000 0.49182  0.56210  0.49727  Biso   1.000  C
  C32      1.0000 0.47208  0.54790  0.58505  Biso   1.000  C
  H55      1.0000 0.44269  0.57630  0.43850  Biso   1.000  H
  C33      1.0000 0.59269  0.55151  0.51409  Biso   1.000  C
  C34      1.0000 0.56521  0.53040  0.64897  Biso   1.000  C
  H56      1.0000 0.40732  0.55022  0.59595  Biso   1.000  H
  O4       1.0000 0.64077  0.53275  0.60784  Biso   1.000  O
  C35      1.0000 0.65888  0.55621  0.45221  Biso   1.000  C
  C36      1.0000 0.59717  0.50839  0.75030  Biso   1.000  C
  H57      1.0000 0.61204  0.56009  0.38026  Biso   1.000  H
  H58      1.0000 0.70013  0.52781  0.45766  Biso   1.000  H
  N9       1.0000 0.73433  0.59602  0.48485  Biso   1.000  N
  N10      1.0000 0.61554  0.54293  0.83156  Biso   1.000  N
  H59      1.0000 0.54071  0.48711  0.75060  Biso   1.000  H
  H60      1.0000 0.66301  0.49058  0.76363  Biso   1.000  H
  H61      1.0000 0.69689  0.62170  0.48781  Biso   1.000  H
  H62      1.0000 0.78337  0.59051  0.54885  Biso   1.000  H
  C37      1.0000 0.79105  0.60450  0.41495  Biso   1.000  C
  C38      1.0000 0.63085  0.52192  0.93214  Biso   1.000  C
  H63      1.0000 0.55841  0.56241  0.81339  Biso   1.000  H
  H64      1.0000 0.67473  0.55979  0.83770  Biso   1.000  H
  H65      1.0000 0.74314  0.59759  0.34459  Biso   1.000  H
  H66      1.0000 0.85323  0.58400  0.43267  Biso   1.000  H
  C39      1.0000 0.82716  0.65269  0.42139  Biso   1.000  C
  C40      1.0000 0.60280  0.55492  0.99886  Biso   1.000  C
  H67      1.0000 0.70574  0.51231  0.96599  Biso   1.000  H
  H68      1.0000 0.58553  0.49450  0.92154  Biso   1.000  H
  H69      1.0000 0.86740  0.65661  0.37640  Biso   1.000  H
  H70      1.0000 0.76373  0.67262  0.39518  Biso   1.000  H
  N11      1.0000 0.89447  0.66853  0.52401  Biso   1.000  N
  H71      1.0000 0.53193  0.56799  0.96024  Biso   1.000  H
  N12      1.0000 0.67984  0.59251  0.03764  Biso   1.000  N
  H72      1.0000 0.59788  0.53799  0.05733  Biso   1.000  H
  C41      1.0000 0.99828  0.64598  0.55627  Biso   1.000  C
  C42      1.0000 0.90586  0.71811  0.51848  Biso   1.000  C
  C43      1.0000 0.76671  0.57532  0.12814  Biso   1.000  C
  C44      1.0000 0.62850  0.63141  0.06725  Biso   1.000  C
  H73      1.0000 0.98643  0.61271  0.55157  Biso   1.000  H
  C45      1.0000 0.07508  0.65692  0.66169  Biso   1.000  C
  H74      1.0000 0.03203  0.65419  0.50787  Biso   1.000  H
  C46      1.0000 0.81079  0.74451  0.51628  Biso   1.000  C
  H75      1.0000 0.92008  0.72540  0.45668  Biso   1.000  H
  H76      1.0000 0.96822  0.72809  0.57755  Biso   1.000  H
  H77      1.0000 0.78681  0.54449  0.11322  Biso   1.000  H
  H78      1.0000 0.74070  0.57239  0.18426  Biso   1.000  H
  C47      1.0000 0.86384  0.60512  0.16214  Biso   1.000  C
  C48      1.0000 0.55841  0.65879  0.97766  Biso   1.000  C
  H79      1.0000 0.68408  0.65150  0.11330  Biso   1.000  H
  H80      1.0000 0.58519  0.61979  0.10474  Biso   1.000  H
  N13      1.0000 0.04911  0.63696  0.74598  Biso   1.000  N
  H81      1.0000 0.14643  0.64619  0.66820  Biso   1.000  H
  H82      1.0000 0.07891  0.69049  0.66980  Biso   1.000  H
  N14      1.0000 0.79116  0.73984  0.61209  Biso   1.000  N
  H83      1.0000 0.82115  0.77710  0.50454  Biso   1.000  H
  H84      1.0000 0.74741  0.73371  0.45895  Biso   1.000  H
  H85      1.0000 0.84322  0.63669  0.17101  Biso   1.000  H
  H86      1.0000 0.91428  0.59418  0.22841  Biso   1.000  H
  N15      1.0000 0.91641  0.60481  0.08785  Biso   1.000  N
  H87      1.0000 0.51000  0.63801  0.92638  Biso   1.000  H
  H88      1.0000 0.51437  0.67990  0.99992  Biso   1.000  H
  N16      1.0000 0.62214  0.68569  0.93078  Biso   1.000  N
  H89      1.0000 0.98455  0.64752  0.74364  Biso   1.000  H
  C49      1.0000 0.13621  0.65109  0.84383  Biso   1.000  C
  H90      1.0000 0.04596  0.60569  0.74076  Biso   1.000  H
  C50      1.0000 0.71116  0.77438  0.61549  Biso   1.000  C
  H91      1.0000 0.85370  0.74400  0.66654  Biso   1.000  H
  H92      1.0000 0.76653  0.71100  0.61618  Biso   1.000  H
  H93      1.0000 0.87014  0.61581  0.02696  Biso   1.000  H
  H94      1.0000 0.93313  0.57521  0.07785  Biso   1.000  H
  C51      1.0000 0.01594  0.63311  0.12254  Biso   1.000  C
  H95      1.0000 0.66807  0.70459  0.97909  Biso   1.000  H
  H96      1.0000 0.66223  0.66601  0.90934  Biso   1.000  H
  C52      1.0000 0.55514  0.71369  0.84345  Biso   1.000  C
  C53      1.0000 0.13459  0.62902  0.93577  Biso   1.000  C
  H97      1.0000 0.20552  0.64469  0.83853  Biso   1.000  H
  H98      1.0000 0.13153  0.68450  0.85163  Biso   1.000  H
  C54      1.0000 0.69104  0.77387  0.71024  Biso   1.000  C
  H99      1.0000 0.73625  0.80509  0.60618  Biso   1.000  H
  H100     1.0000 0.64334  0.76869  0.55809  Biso   1.000  H
  H101     1.0000 0.99677  0.66580  0.11383  Biso   1.000  H
  H102     1.0000 0.05651  0.62749  0.19539  Biso   1.000  H
  C55      1.0000 0.08289  0.62191  0.06430  Biso   1.000  C
  H103     1.0000 0.51772  0.69349  0.78544  Biso   1.000  H
  H104     1.0000 0.50083  0.72990  0.86186  Biso   1.000  H
  C56      1.0000 0.61849  0.74751  0.81255  Biso   1.000  C
  O5       1.0000 0.06273  0.64445  0.97447  Biso   1.000  O
  C57      1.0000 0.19984  0.59861  0.99977  Biso   1.000  C
  O6       1.0000 0.63196  0.73855  0.72379  Biso   1.000  O
  C58      1.0000 0.71384  0.80349  0.78718  Biso   1.000  C
  C59      1.0000 0.16642  0.59459  0.08293  Biso   1.000  C
  C60      1.0000 0.66656  0.78650  0.85315  Biso   1.000  C
  H105     1.0000 0.25701  0.58291  0.99114  Biso   1.000  H
  H106     1.0000 0.75403  0.83071  0.79559  Biso   1.000  H
  H107     1.0000 0.19783  0.57600  0.14101  Biso   1.000  H
  H108     1.0000 0.66853  0.80009  0.91434  Biso   1.000  H
  C61      1.0000 0.78602  0.30351  0.71274  Biso   1.000  C
  C62      1.0000 0.83337  0.28648  0.64677  Biso   1.000  C
  C63      1.0000 0.80881  0.27385  0.78968  Biso   1.000  C
  H109     1.0000 0.74585  0.33069  0.70441  Biso   1.000  H
  C64      1.0000 0.88136  0.24749  0.68737  Biso   1.000  C
  H110     1.0000 0.83133  0.30011  0.58558  Biso   1.000  H
  O7       1.0000 0.86792  0.23857  0.77620  Biso   1.000  O
  C65      1.0000 0.78869  0.27436  0.88443  Biso   1.000  C
  C66      1.0000 0.94472  0.21370  0.65647  Biso   1.000  C
  N17      1.0000 0.70870  0.23986  0.88783  Biso   1.000  N
  H111     1.0000 0.76361  0.30511  0.89374  Biso   1.000  H
  H112     1.0000 0.85652  0.26871  0.94183  Biso   1.000  H
  N18      1.0000 0.87772  0.18571  0.56914  Biso   1.000  N
  H113     1.0000 0.98213  0.19351  0.71448  Biso   1.000  H
  H114     1.0000 0.99903  0.22992  0.63806  Biso   1.000  H
  C67      1.0000 0.68914  0.24449  0.98364  Biso   1.000  C
  H115     1.0000 0.64616  0.24401  0.83338  Biso   1.000  H
  H116     1.0000 0.73333  0.21101  0.88374  Biso   1.000  H
  C68      1.0000 0.94145  0.15881  0.52226  Biso   1.000  C
  H117     1.0000 0.83189  0.20461  0.52090  Biso   1.000  H
  H118     1.0000 0.83763  0.16599  0.59058  Biso   1.000  H
  C69      1.0000 0.59400  0.21810  0.98144  Biso   1.000  C
  H119     1.0000 0.67871  0.27708  0.99538  Biso   1.000  H
  H120     1.0000 0.75255  0.23370  0.04105  Biso   1.000  H
  C70      1.0000 0.87146  0.13139  0.43275  Biso   1.000  C
  H121     1.0000 0.98989  0.13800  0.57361  Biso   1.000  H
  H122     1.0000 0.98549  0.17989  0.50000  Biso   1.000  H
  N19      1.0000 0.60542  0.16855  0.97599  Biso   1.000  N
  H123     1.0000 0.53163  0.22811  0.92237  Biso   1.000  H
  H124     1.0000 0.57988  0.22539  0.04332  Biso   1.000  H
  N20      1.0000 0.82012  0.09250  0.46236  Biso   1.000  N
  H125     1.0000 0.81588  0.15148  0.38670  Biso   1.000  H
  H126     1.0000 0.91477  0.11981  0.39526  Biso   1.000  H
  C71      1.0000 0.50165  0.14600  0.94365  Biso   1.000  C
  C72      1.0000 0.67280  0.15271  0.07861  Biso   1.000  C
  C73      1.0000 0.73325  0.07530  0.37186  Biso   1.000  C
  C74      1.0000 0.89706  0.05490  0.50106  Biso   1.000  C
  C75      1.0000 0.42485  0.15690  0.83823  Biso   1.000  C
  H127     1.0000 0.46783  0.15421  0.99205  Biso   1.000  H
  H128     1.0000 0.51343  0.11269  0.94835  Biso   1.000  H
  C76      1.0000 0.70891  0.10449  0.08505  Biso   1.000  C
  H129     1.0000 0.63256  0.15659  0.12360  Biso   1.000  H
  H130     1.0000 0.73623  0.17260  0.10481  Biso   1.000  H
  C77      1.0000 0.63612  0.10510  0.33785  Biso   1.000  C
  H131     1.0000 0.71315  0.04451  0.38678  Biso   1.000  H
  H132     1.0000 0.75929  0.07240  0.31581  Biso   1.000  H
  H133     1.0000 0.96793  0.06801  0.53968  Biso   1.000  H
  H134     1.0000 0.90208  0.03801  0.44267  Biso   1.000  H
  C78      1.0000 0.86908  0.02190  0.56778  Biso   1.000  C
  N21      1.0000 0.45075  0.13694  0.75394  Biso   1.000  N
  H135     1.0000 0.35345  0.14620  0.83179  Biso   1.000  H
  H136     1.0000 0.42097  0.19051  0.83020  Biso   1.000  H
  N22      1.0000 0.76563  0.09601  0.01514  Biso   1.000  N
  H137     1.0000 0.75682  0.09761  0.15540  Biso   1.000  H
  H138     1.0000 0.64673  0.08398  0.06733  Biso   1.000  H
  N23      1.0000 0.58355  0.10479  0.41215  Biso   1.000  N
  H139     1.0000 0.65674  0.13670  0.32899  Biso   1.000  H
  H140     1.0000 0.58568  0.09420  0.27158  Biso   1.000  H
  H141     1.0000 0.79414  0.01229  0.53400  Biso   1.000  H
  N24      1.0000 0.88432  0.04295  0.66836  Biso   1.000  N
  H142     1.0000 0.91433  0.99452  0.57838  Biso   1.000  H
  C79      1.0000 0.36365  0.15111  0.65609  Biso   1.000  C
  H143     1.0000 0.45397  0.10571  0.75916  Biso   1.000  H
  H144     1.0000 0.51531  0.14750  0.75628  Biso   1.000  H
  C80      1.0000 0.84111  0.05619  0.04786  Biso   1.000  C
  H145     1.0000 0.71656  0.09049  0.95107  Biso   1.000  H
  H146     1.0000 0.80310  0.12168  0.01227  Biso   1.000  H
  C81      1.0000 0.48409  0.13309  0.37746  Biso   1.000  C
  H147     1.0000 0.62985  0.11579  0.47311  Biso   1.000  H
  H148     1.0000 0.56686  0.07520  0.42222  Biso   1.000  H
  H149     1.0000 0.94147  0.06239  0.68661  Biso   1.000  H
  H150     1.0000 0.82515  0.05980  0.66230  Biso   1.000  H
  C82      1.0000 0.90272  0.00841  0.74969  Biso   1.000  C
  C83      1.0000 0.36527  0.12901  0.56415  Biso   1.000  C
  H151     1.0000 0.29434  0.14471  0.66139  Biso   1.000  H
  H152     1.0000 0.36833  0.18448  0.64829  Biso   1.000  H
  C84      1.0000 0.90724  0.05149  0.98583  Biso   1.000  C
  H153     1.0000 0.88792  0.06011  0.11973  Biso   1.000  H
  H154     1.0000 0.79983  0.02779  0.04233  Biso   1.000  H
  H155     1.0000 0.50319  0.16579  0.38617  Biso   1.000  H
  H156     1.0000 0.44345  0.12751  0.30460  Biso   1.000  H
  C85      1.0000 0.41707  0.12189  0.43570  Biso   1.000  C
  C86      1.0000 0.93465  0.03041  0.85095  Biso   1.000  C
  H157     1.0000 0.95917  0.98709  0.74939  Biso   1.000  H
  H158     1.0000 0.83685  0.99060  0.73629  Biso   1.000  H
  O8       1.0000 0.43713  0.14443  0.52545  Biso   1.000  O
  C87      1.0000 0.30002  0.09859  0.50015  Biso   1.000  C
  O9       1.0000 0.85916  0.03273  0.89208  Biso   1.000  O
  C88      1.0000 0.00814  0.06208  0.00272  Biso   1.000  C
  C89      1.0000 0.33354  0.09461  0.41707  Biso   1.000  C
  C90      1.0000 0.02785  0.04788  0.91487  Biso   1.000  C
  H159     1.0000 0.24284  0.08289  0.50878  Biso   1.000  H
  H160     1.0000 0.05727  0.07629  0.06149  Biso   1.000  H
  H161     1.0000 0.30213  0.07601  0.35898  Biso   1.000  H
  H162     1.0000 0.09254  0.05020  0.90397  Biso   1.000  H
  C91      1.0000 0.21388  0.69649  0.28718  Biso   1.000  C
  C92      1.0000 0.16652  0.71352  0.35315  Biso   1.000  C
  H163     1.0000 0.25407  0.66931  0.29559  Biso   1.000  H
  C93      1.0000 0.19111  0.72615  0.21031  Biso   1.000  C
  C94      1.0000 0.11853  0.75251  0.31256  Biso   1.000  C
  H164     1.0000 0.16860  0.69989  0.41442  Biso   1.000  H
  O10      1.0000 0.13200  0.76143  0.22380  Biso   1.000  O
  C95      1.0000 0.21120  0.72564  0.11549  Biso   1.000  C
  C96      1.0000 0.05518  0.78630  0.34346  Biso   1.000  C
  H165     1.0000 0.23629  0.69489  0.10618  Biso   1.000  H
  H166     1.0000 0.14338  0.73129  0.05809  Biso   1.000  H
  N25      1.0000 0.29119  0.76014  0.11209  Biso   1.000  N
  N26      1.0000 0.12218  0.81429  0.43078  Biso   1.000  N
  H167     1.0000 0.01779  0.80649  0.28552  Biso   1.000  H
  H168     1.0000 0.00087  0.77008  0.36186  Biso   1.000  H
  H169     1.0000 0.35377  0.75599  0.16662  Biso   1.000  H
  H170     1.0000 0.26657  0.78899  0.11618  Biso   1.000  H
  C97      1.0000 0.31082  0.75551  0.01628  Biso   1.000  C
  C98      1.0000 0.05845  0.84119  0.47766  Biso   1.000  C
  H171     1.0000 0.16803  0.79539  0.47910  Biso   1.000  H
  H172     1.0000 0.16230  0.83401  0.40942  Biso   1.000  H
  H173     1.0000 0.32122  0.72292  0.00462  Biso   1.000  H
  C99      1.0000 0.40590  0.78190  0.01848  Biso   1.000  C
  H174     1.0000 0.24738  0.76630  0.95895  Biso   1.000  H
  C100     1.0000 0.12844  0.86861  0.56717  Biso   1.000  C
  H175     1.0000 0.01004  0.86200  0.42638  Biso   1.000  H
  H176     1.0000 0.01444  0.82011  0.50000  Biso   1.000  H
  H177     1.0000 0.46829  0.77189  0.07763  Biso   1.000  H
  N27      1.0000 0.39451  0.83145  0.02401  Biso   1.000  N
  H178     1.0000 0.42001  0.77461  0.95660  Biso   1.000  H
  N28      1.0000 0.17977  0.90750  0.53756  Biso   1.000  N
  H179     1.0000 0.18404  0.84852  0.61330  Biso   1.000  H
  H180     1.0000 0.08512  0.88019  0.60466  Biso   1.000  H
  C101     1.0000 0.49825  0.85400  0.05627  Biso   1.000  C
  C102     1.0000 0.32710  0.84729  0.92131  Biso   1.000  C
  C103     1.0000 0.26665  0.92470  0.62807  Biso   1.000  C
  C104     1.0000 0.10283  0.94510  0.49886  Biso   1.000  C
  C105     1.0000 0.57505  0.84310  0.16169  Biso   1.000  C
  H181     1.0000 0.53207  0.84579  0.00788  Biso   1.000  H
  H182     1.0000 0.48646  0.88731  0.05158  Biso   1.000  H
  C106     1.0000 0.29102  0.89551  0.91495  Biso   1.000  C
  H183     1.0000 0.36733  0.84341  0.87633  Biso   1.000  H
  H184     1.0000 0.26366  0.82740  0.89511  Biso   1.000  H
  H185     1.0000 0.28675  0.95549  0.61315  Biso   1.000  H
  H186     1.0000 0.24064  0.92760  0.68418  Biso   1.000  H
  C107     1.0000 0.36378  0.89490  0.66207  Biso   1.000  C
  H187     1.0000 0.03200  0.93199  0.46031  Biso   1.000  H
  H188     1.0000 0.09782  0.96199  0.55725  Biso   1.000  H
  C108     1.0000 0.13084  0.97810  0.43222  Biso   1.000  C
  N29      1.0000 0.54915  0.86306  0.24599  Biso   1.000  N
  H189     1.0000 0.64647  0.85380  0.16821  Biso   1.000  H
  H190     1.0000 0.57895  0.80949  0.16980  Biso   1.000  H
  N30      1.0000 0.23430  0.90399  0.98485  Biso   1.000  N
  H191     1.0000 0.24307  0.90239  0.84452  Biso   1.000  H
  H192     1.0000 0.35317  0.91602  0.93260  Biso   1.000  H
  H193     1.0000 0.34318  0.86330  0.67101  Biso   1.000  H
  H194     1.0000 0.41422  0.90580  0.72834  Biso   1.000  H
  N31      1.0000 0.41635  0.89521  0.58777  Biso   1.000  N
  H195     1.0000 0.20578  0.98771  0.46599  Biso   1.000  H
  N32      1.0000 0.11558  0.95705  0.33157  Biso   1.000  N
  H196     1.0000 0.08559  0.00548  0.42161  Biso   1.000  H
  C109     1.0000 0.63628  0.84889  0.34391  Biso   1.000  C
  H197     1.0000 0.54600  0.89429  0.24076  Biso   1.000  H
  H198     1.0000 0.48461  0.85250  0.24371  Biso   1.000  H
  H199     1.0000 0.28344  0.90951  0.04892  Biso   1.000  H
  C110     1.0000 0.15882  0.94381  0.95214  Biso   1.000  C
  H200     1.0000 0.19682  0.87832  0.98773  Biso   1.000  H
  H201     1.0000 0.37007  0.88421  0.52688  Biso   1.000  H
  H202     1.0000 0.43306  0.92480  0.57778  Biso   1.000  H
  C111     1.0000 0.51588  0.86691  0.62246  Biso   1.000  C
  H203     1.0000 0.05845  0.93761  0.31339  Biso   1.000  H
  H204     1.0000 0.17477  0.94020  0.33770  Biso   1.000  H
  C112     1.0000 0.09721  0.99159  0.25030  Biso   1.000  C
  C113     1.0000 0.63463  0.87099  0.43578  Biso   1.000  C
  H205     1.0000 0.70559  0.85529  0.33861  Biso   1.000  H
  H206     1.0000 0.63159  0.81552  0.35171  Biso   1.000  H
  C114     1.0000 0.09273  0.94851  0.01409  Biso   1.000  C
  H207     1.0000 0.11200  0.93989  0.88026  Biso   1.000  H
  H208     1.0000 0.20006  0.97221  0.95759  Biso   1.000  H
  H209     1.0000 0.49671  0.83421  0.61375  Biso   1.000  H
  H210     1.0000 0.55647  0.87249  0.69539  Biso   1.000  H
  C115     1.0000 0.58286  0.87811  0.56430  Biso   1.000  C
  C116     1.0000 0.06525  0.96959  0.14897  Biso   1.000  C
  H211     1.0000 0.04075  0.01291  0.25061  Biso   1.000  H
  H212     1.0000 0.16308  0.00940  0.26371  Biso   1.000  H
  C117     1.0000 0.69987  0.90141  0.49977  Biso   1.000  C
  O11      1.0000 0.56276  0.85557  0.47448  Biso   1.000  O
  O12      1.0000 0.14084  0.96727  0.10792  Biso   1.000  O
  C118     1.0000 0.99176  0.93792  0.99720  Biso   1.000  C
  C119     1.0000 0.66636  0.90539  0.58285  Biso   1.000  C
  C120     1.0000 0.97207  0.95212  0.08513  Biso   1.000  C
  H213     1.0000 0.75708  0.91711  0.49121  Biso   1.000  H
  H214     1.0000 0.94263  0.92371  0.93843  Biso   1.000  H
  H215     1.0000 0.69776  0.92399  0.64094  Biso   1.000  H
  H216     1.0000 0.90738  0.94980  0.09603  Biso   1.000  H
