data_image0
_cell_length_a       14.471
_cell_length_b       22.919
_cell_length_c       16.135
_cell_angle_alpha    90
_cell_angle_beta     105.02
_cell_angle_gamma    90

_symmetry_space_group_name_H-M    "P 1"
_symmetry_int_tables_number       1

loop_
  _symmetry_equiv_pos_as_xyz
  'x, y, z'

loop_
  _atom_site_label
  _atom_site_occupancy
  _atom_site_fract_x
  _atom_site_fract_y
  _atom_site_fract_z
  _atom_site_thermal_displace_type
  _atom_site_B_iso_or_equiv
  _atom_site_type_symbol
  C1       1.0000 0.42319  0.79510  0.20399  Biso   1.000  C
  N1       1.0000 0.51305  0.77111  0.21554  Biso   1.000  N
  N2       1.0000 0.36361  0.76709  0.13578  Biso   1.000  N
  N3       1.0000 0.36354  0.76709  0.13578  Biso   1.000  N
  O1       1.0000 0.40261  0.83376  0.24731  Biso   1.000  O
  O2       1.0000 0.40252  0.83376  0.24724  Biso   1.000  O
  C2       1.0000 0.51689  0.72490  0.15542  Biso   1.000  C
  C3       1.0000 0.51687  0.72490  0.15535  Biso   1.000  C
  C4       1.0000 0.59316  0.78568  0.28761  Biso   1.000  C
  C5       1.0000 0.59314  0.78568  0.28754  Biso   1.000  C
  C6       1.0000 0.41031  0.72041  0.10203  Biso   1.000  C
  C7       1.0000 0.41029  0.72041  0.10197  Biso   1.000  C
  C8       1.0000 0.26085  0.77281  0.11807  Biso   1.000  C
  N4       1.0000 0.56617  0.74100  0.09041  Biso   1.000  N
  N5       1.0000 0.56615  0.74100  0.09035  Biso   1.000  N
  H1       1.0000 0.54067  0.68812  0.18417  Biso   1.000  H
  N6       1.0000 0.66596  0.82150  0.26502  Biso   1.000  N
  N7       1.0000 0.66595  0.82150  0.26496  Biso   1.000  N
  H2       1.0000 0.56907  0.80619  0.33028  Biso   1.000  H
  H3       1.0000 0.62258  0.74981  0.31360  Biso   1.000  H
  N8       1.0000 0.41620  0.72918  0.01431  Biso   1.000  N
  N9       1.0000 0.41618  0.72918  0.01425  Biso   1.000  N
  H4       1.0000 0.38256  0.68232  0.10928  Biso   1.000  H
  N10      1.0000 0.21840  0.80261  0.04100  Biso   1.000  N
  N11      1.0000 0.21838  0.80261  0.04094  Biso   1.000  N
  H5       1.0000 0.23298  0.73411  0.11538  Biso   1.000  H
  H6       1.0000 0.24545  0.79340  0.16524  Biso   1.000  H
  C9       1.0000 0.50748  0.74240  0.00950  Biso   1.000  C
  C10      1.0000 0.66800  0.73559  0.10440  Biso   1.000  C
  C11      1.0000 0.66798  0.73559  0.10434  Biso   1.000  C
  C12      1.0000 0.74285  0.79572  0.23646  Biso   1.000  C
  C13      1.0000 0.68956  0.87491  0.30076  Biso   1.000  C
  C14      1.0000 0.33851  0.71910  0.94058  Biso   1.000  C
  C15      1.0000 0.19248  0.77490  0.95919  Biso   1.000  C
  C16      1.0000 0.16993  0.85501  0.03972  Biso   1.000  C
  C17      1.0000 0.16984  0.85501  0.03966  Biso   1.000  C
  O3       1.0000 0.53187  0.75204  0.94372  Biso   1.000  O
  O4       1.0000 0.53178  0.75204  0.94366  Biso   1.000  O
  H7       1.0000 0.68937  0.70151  0.13989  Biso   1.000  H
  H8       1.0000 0.68222  0.72900  0.04960  Biso   1.000  H
  H9       1.0000 0.68213  0.72900  0.04954  Biso   1.000  H
  N12      1.0000 0.72165  0.78590  0.14515  Biso   1.000  N
  C18      1.0000 0.81861  0.84410  0.25161  Biso   1.000  C
  C19      1.0000 0.81852  0.84410  0.25154  Biso   1.000  C
  H10      1.0000 0.76725  0.76042  0.26900  Biso   1.000  H
  N13      1.0000 0.77532  0.89079  0.28761  Biso   1.000  N
  N14      1.0000 0.77523  0.89079  0.28754  Biso   1.000  N
  O5       1.0000 0.64113  0.90589  0.33644  Biso   1.000  O
  H11      1.0000 0.36431  0.71142  0.89187  Biso   1.000  H
  H12      1.0000 0.30462  0.68441  0.95053  Biso   1.000  H
  H13      1.0000 0.30460  0.68441  0.95046  Biso   1.000  H
  N15      1.0000 0.27131  0.76644  0.91895  Biso   1.000  N
  H14      1.0000 0.15833  0.73821  0.96131  Biso   1.000  H
  C20      1.0000 0.12783  0.81980  0.89880  Biso   1.000  C
  H15      1.0000 0.15831  0.73821  0.96124  Biso   1.000  H
  C21      1.0000 0.12781  0.81980  0.89874  Biso   1.000  C
  N16      1.0000 0.12424  0.86762  0.95572  Biso   1.000  N
  N17      1.0000 0.12422  0.86762  0.95566  Biso   1.000  N
  O6       1.0000 0.16996  0.88429  0.10248  Biso   1.000  O
  C22      1.0000 0.77595  0.81901  0.10684  Biso   1.000  C
  N18      1.0000 0.82873  0.85632  0.16562  Biso   1.000  N
  N19      1.0000 0.82864  0.85632  0.16556  Biso   1.000  N
  H16      1.0000 0.87905  0.83149  0.29049  Biso   1.000  H
  C23      1.0000 0.83045  0.93909  0.33419  Biso   1.000  C
  C24      1.0000 0.25807  0.79681  0.84490  Biso   1.000  C
  C25      1.0000 0.25800  0.79681  0.84490  Biso   1.000  C
  N20      1.0000 0.17921  0.83280  0.83508  Biso   1.000  N
  H17      1.0000 0.06400  0.80392  0.87256  Biso   1.000  H
  C26      1.0000 0.05334  0.91269  0.93371  Biso   1.000  C
  C27      1.0000 0.05332  0.91269  0.93365  Biso   1.000  C
  O7       1.0000 0.77809  0.81548  0.03080  Biso   1.000  O
  C28      1.0000 0.91215  0.88739  0.15157  Biso   1.000  C
  H18      1.0000 0.89076  0.92430  0.36929  Biso   1.000  H
  H19      1.0000 0.79573  0.95602  0.37237  Biso   1.000  H
  N21      1.0000 0.84967  0.98429  0.27805  Biso   1.000  N
  O8       1.0000 0.30793  0.79301  0.79293  Biso   1.000  O
  O9       1.0000 0.30792  0.79301  0.79286  Biso   1.000  O
  C29      1.0000 0.13680  0.86151  0.75526  Biso   1.000  C
  H20      1.0000 0.99321  0.89550  0.90214  Biso   1.000  H
  H21      1.0000 0.04364  0.92940  0.98601  Biso   1.000  H
  N22      1.0000 0.07876  0.95868  0.88251  Biso   1.000  N
  H22      1.0000 0.04362  0.92940  0.98595  Biso   1.000  H
  N23      1.0000 0.07867  0.95868  0.88244  Biso   1.000  N
  H23      1.0000 0.96901  0.87460  0.19430  Biso   1.000  H
  N24      1.0000 0.90432  0.94987  0.15651  Biso   1.000  N
  H24      1.0000 0.96892  0.87460  0.19424  Biso   1.000  H
  H25      1.0000 0.92008  0.87700  0.09555  Biso   1.000  H
  N25      1.0000 0.90423  0.94987  0.15644  Biso   1.000  N
  C30      1.0000 0.92755  0.98150  0.23595  Biso   1.000  C
  C31      1.0000 0.81596  0.03979  0.27856  Biso   1.000  C
  H26      1.0000 0.17214  0.85100  0.71400  Biso   1.000  H
  N26      1.0000 0.13537  0.92408  0.76251  Biso   1.000  N
  H27      1.0000 0.07171  0.84759  0.73350  Biso   1.000  H
  N27      1.0000 0.13528  0.92408  0.76244  Biso   1.000  N
  C32      1.0000 0.06161  0.95488  0.79087  Biso   1.000  C
  C33      1.0000 0.09451  0.01418  0.91145  Biso   1.000  C
  C34      1.0000 0.90540  0.98582  0.08849  Biso   1.000  C
  H28      1.0000 0.98678  0.96701  0.27497  Biso   1.000  H
  C35      1.0000 0.93832  0.04512  0.20913  Biso   1.000  C
  C36      1.0000 0.93823  0.04512  0.20906  Biso   1.000  C
  N28      1.0000 0.86456  0.07592  0.23749  Biso   1.000  N
  O10      1.0000 0.75176  0.05471  0.31180  Biso   1.000  O
  O11      1.0000 0.75175  0.05471  0.31173  Biso   1.000  O
  C37      1.0000 0.18395  0.96021  0.72138  Biso   1.000  C
  H29      1.0000 0.99787  0.93940  0.76398  Biso   1.000  H
  H30      1.0000 0.99780  0.93940  0.76398  Biso   1.000  H
  C38      1.0000 0.07229  0.01850  0.76398  Biso   1.000  C
  N29      1.0000 0.09561  0.05013  0.84349  Biso   1.000  N
  O12      1.0000 0.10766  0.03054  0.98659  Biso   1.000  O
  O13      1.0000 0.10759  0.03054  0.98659  Biso   1.000  O
  O14      1.0000 0.89227  0.96946  0.01341  Biso   1.000  O
  O15      1.0000 0.89225  0.96946  0.01335  Biso   1.000  O
  N30      1.0000 0.92117  0.04132  0.11749  Biso   1.000  N
  H31      1.0000 0.00205  0.06060  0.23595  Biso   1.000  H
  C39      1.0000 0.86311  0.13849  0.24468  Biso   1.000  C
  C40      1.0000 0.86304  0.13849  0.24468  Biso   1.000  C
  O16      1.0000 0.24810  0.94529  0.68820  Biso   1.000  O
  N31      1.0000 0.15024  0.01571  0.72189  Biso   1.000  N
  H32      1.0000 0.01313  0.03299  0.72497  Biso   1.000  H
  C41      1.0000 0.08778  0.11261  0.84843  Biso   1.000  C
  C42      1.0000 0.08769  0.11261  0.84837  Biso   1.000  C
  C43      1.0000 0.94660  0.08731  0.06629  Biso   1.000  C
  H33      1.0000 0.92816  0.15241  0.26650  Biso   1.000  H
  N32      1.0000 0.82072  0.16720  0.16492  Biso   1.000  N
  H34      1.0000 0.82777  0.14900  0.28594  Biso   1.000  H
  N33      1.0000 0.82063  0.16720  0.16485  Biso   1.000  N
  C44      1.0000 0.16941  0.06091  0.66581  Biso   1.000  C
  N34      1.0000 0.17120  0.14368  0.83438  Biso   1.000  N
  H35      1.0000 0.03093  0.12540  0.80570  Biso   1.000  H
  H36      1.0000 0.07983  0.12300  0.90439  Biso   1.000  H
  H37      1.0000 0.95629  0.07060  0.01399  Biso   1.000  H
  N35      1.0000 0.87569  0.13238  0.04428  Biso   1.000  N
  H38      1.0000 0.00670  0.10450  0.09779  Biso   1.000  H
  C45      1.0000 0.87210  0.18020  0.10120  Biso   1.000  C
  C46      1.0000 0.74187  0.20319  0.15510  Biso   1.000  C
  N36      1.0000 0.22461  0.10921  0.71239  Biso   1.000  N
  H39      1.0000 0.20413  0.04398  0.62763  Biso   1.000  H
  H40      1.0000 0.20411  0.04398  0.62756  Biso   1.000  H
  H41      1.0000 0.10910  0.07570  0.63071  Biso   1.000  H
  C47      1.0000 0.18132  0.15590  0.74839  Biso   1.000  C
  C48      1.0000 0.22396  0.18099  0.89309  Biso   1.000  C
  C49      1.0000 0.22389  0.18099  0.89309  Biso   1.000  C
  C50      1.0000 0.83000  0.14499  0.96028  Biso   1.000  C
  C51      1.0000 0.80738  0.22510  0.04081  Biso   1.000  C
  C52      1.0000 0.80737  0.22510  0.04075  Biso   1.000  C
  H42      1.0000 0.93585  0.19608  0.12738  Biso   1.000  H
  N37      1.0000 0.72860  0.23356  0.08098  Biso   1.000  N
  O17      1.0000 0.69193  0.20699  0.20707  Biso   1.000  O
  C53      1.0000 0.31035  0.12509  0.69917  Biso   1.000  C
  H43      1.0000 0.12081  0.16851  0.70951  Biso   1.000  H
  C54      1.0000 0.25699  0.20428  0.76347  Biso   1.000  C
  N38      1.0000 0.27827  0.21410  0.85478  Biso   1.000  N
  O18      1.0000 0.22184  0.18452  0.96920  Biso   1.000  O
  N39      1.0000 0.27820  0.21410  0.85478  Biso   1.000  N
  N40      1.0000 0.78153  0.19739  0.95900  Biso   1.000  N
  O19      1.0000 0.82997  0.11571  0.89752  Biso   1.000  O
  O20      1.0000 0.82988  0.11571  0.89746  Biso   1.000  O
  H44      1.0000 0.84160  0.26179  0.03869  Biso   1.000  H
  C55      1.0000 0.66142  0.28090  0.05942  Biso   1.000  C
  C56      1.0000 0.66134  0.28090  0.05936  Biso   1.000  C
  O21      1.0000 0.35878  0.09411  0.66350  Biso   1.000  O
  N41      1.0000 0.33390  0.17850  0.73498  Biso   1.000  N
  O22      1.0000 0.35871  0.09411  0.66350  Biso   1.000  O
  H45      1.0000 0.23262  0.23958  0.73100  Biso   1.000  H
  C57      1.0000 0.33194  0.26441  0.89560  Biso   1.000  C
  C58      1.0000 0.73900  0.22719  0.88186  Biso   1.000  C
  N42      1.0000 0.58373  0.27082  0.98569  Biso   1.000  N
  H46      1.0000 0.63562  0.28858  0.10813  Biso   1.000  H
  H47      1.0000 0.69531  0.31559  0.04947  Biso   1.000  H
  H48      1.0000 0.63554  0.28858  0.10806  Biso   1.000  H
  H49      1.0000 0.69524  0.31559  0.04947  Biso   1.000  H
  C59      1.0000 0.40677  0.21432  0.71239  Biso   1.000  C
  C60      1.0000 0.40670  0.21432  0.71239  Biso   1.000  C
  H50      1.0000 0.31056  0.29849  0.86011  Biso   1.000  H
  H51      1.0000 0.31771  0.27100  0.95040  Biso   1.000  H
  N43      1.0000 0.43376  0.25900  0.90959  Biso   1.000  N
  H52      1.0000 0.31047  0.29849  0.86005  Biso   1.000  H
  N44      1.0000 0.43369  0.25900  0.90959  Biso   1.000  N
  H53      1.0000 0.75439  0.20660  0.83470  Biso   1.000  H
  H54      1.0000 0.76693  0.26589  0.88456  Biso   1.000  H
  N45      1.0000 0.63630  0.23291  0.86415  Biso   1.000  N
  C61      1.0000 0.58962  0.27959  0.89797  Biso   1.000  C
  C62      1.0000 0.49245  0.25760  0.99050  Biso   1.000  C
  C63      1.0000 0.49237  0.25760  0.99044  Biso   1.000  C
  H55      1.0000 0.37735  0.25019  0.68640  Biso   1.000  H
  N46      1.0000 0.48687  0.22889  0.78439  Biso   1.000  N
  H56      1.0000 0.43084  0.19381  0.66966  Biso   1.000  H
  N47      1.0000 0.48680  0.22889  0.78439  Biso   1.000  N
  C64      1.0000 0.48304  0.27510  0.84458  Biso   1.000  C
  C65      1.0000 0.57674  0.20490  0.79601  Biso   1.000  C
  C66      1.0000 0.57672  0.20490  0.79594  Biso   1.000  C
  H57      1.0000 0.61738  0.31768  0.89072  Biso   1.000  H
  H58      1.0000 0.61729  0.31768  0.89066  Biso   1.000  H
  O23      1.0000 0.46806  0.24796  0.05628  Biso   1.000  O
  H59      1.0000 0.45924  0.31188  0.81577  Biso   1.000  H
  O24      1.0000 0.59732  0.16624  0.75269  Biso   1.000  O
  O25      1.0000 0.30797  0.70701  0.29287  Biso   1.000  O
  C67      1.0000 0.25805  0.70322  0.34491  Biso   1.000  C
  N48      1.0000 0.17927  0.66722  0.33509  Biso   1.000  N
  N49      1.0000 0.27138  0.73354  0.41903  Biso   1.000  N
  C68      1.0000 0.13685  0.63851  0.25527  Biso   1.000  C
  C69      1.0000 0.12789  0.68022  0.39881  Biso   1.000  C
  C70      1.0000 0.19260  0.72512  0.45920  Biso   1.000  C
  C71      1.0000 0.33856  0.78088  0.44059  Biso   1.000  C
  N50      1.0000 0.13542  0.57594  0.26252  Biso   1.000  N
  H60      1.0000 0.17220  0.64898  0.21400  Biso   1.000  H
  H61      1.0000 0.07176  0.65238  0.23351  Biso   1.000  H
  N51      1.0000 0.12427  0.63236  0.45567  Biso   1.000  N
  H62      1.0000 0.06405  0.69610  0.37257  Biso   1.000  H
  N52      1.0000 0.21838  0.69741  0.54101  Biso   1.000  N
  H63      1.0000 0.15838  0.76181  0.46131  Biso   1.000  H
  H64      1.0000 0.36436  0.78860  0.39188  Biso   1.000  H
  H65      1.0000 0.30465  0.81561  0.45047  Biso   1.000  H
  N53      1.0000 0.41618  0.77080  0.51432  Biso   1.000  N
  C72      1.0000 0.18400  0.53981  0.22138  Biso   1.000  C
  C73      1.0000 0.06166  0.54509  0.29088  Biso   1.000  C
  C74      1.0000 0.05339  0.58729  0.43372  Biso   1.000  C
  C75      1.0000 0.16983  0.64501  0.53966  Biso   1.000  C
  C76      1.0000 0.26083  0.72721  0.61808  Biso   1.000  C
  C77      1.0000 0.41028  0.77962  0.60197  Biso   1.000  C
  C78      1.0000 0.50746  0.75758  0.50950  Biso   1.000  C
  N54      1.0000 0.15029  0.48431  0.22190  Biso   1.000  N
  O26      1.0000 0.24822  0.55469  0.18821  Biso   1.000  O
  C79      1.0000 0.07241  0.48148  0.26399  Biso   1.000  C
  N55      1.0000 0.07881  0.54130  0.38251  Biso   1.000  N
  H66      1.0000 0.99785  0.56058  0.26399  Biso   1.000  H
  H67      1.0000 0.04369  0.57062  0.48602  Biso   1.000  H
  H68      1.0000 0.99329  0.60452  0.40221  Biso   1.000  H
  O27      1.0000 0.16995  0.61569  0.60249  Biso   1.000  O
  H69      1.0000 0.24545  0.70662  0.66531  Biso   1.000  H
  H70      1.0000 0.23296  0.76591  0.61538  Biso   1.000  H
  N56      1.0000 0.36359  0.73289  0.63579  Biso   1.000  N
  C80      1.0000 0.51685  0.77512  0.65536  Biso   1.000  C
  H71      1.0000 0.38254  0.81771  0.60929  Biso   1.000  H
  N57      1.0000 0.56616  0.75902  0.59042  Biso   1.000  N
  O28      1.0000 0.53184  0.74794  0.44367  Biso   1.000  O
  C81      1.0000 0.16947  0.43911  0.16581  Biso   1.000  C
  N58      1.0000 0.09566  0.44989  0.34350  Biso   1.000  N
  H72      1.0000 0.01318  0.46699  0.22498  Biso   1.000  H
  C82      1.0000 0.09459  0.48580  0.41152  Biso   1.000  C
  C83      1.0000 0.42318  0.70492  0.70400  Biso   1.000  C
  N59      1.0000 0.51305  0.72891  0.71562  Biso   1.000  N
  H73      1.0000 0.54066  0.81190  0.68417  Biso   1.000  H
  C84      1.0000 0.66798  0.76439  0.60441  Biso   1.000  C
  N60      1.0000 0.22467  0.39081  0.21240  Biso   1.000  N
  H74      1.0000 0.20416  0.45600  0.12757  Biso   1.000  H
  H75      1.0000 0.10922  0.42432  0.13071  Biso   1.000  H
  C85      1.0000 0.08774  0.38741  0.34838  Biso   1.000  C
  O29      1.0000 0.10764  0.46948  0.48660  Biso   1.000  O
  O30      1.0000 0.40259  0.66626  0.74732  Biso   1.000  O
  C86      1.0000 0.59314  0.71430  0.78762  Biso   1.000  C
  H76      1.0000 0.68936  0.79851  0.63990  Biso   1.000  H
  H77      1.0000 0.68221  0.77102  0.54961  Biso   1.000  H
  N61      1.0000 0.72163  0.71408  0.64516  Biso   1.000  N
  C87      1.0000 0.18138  0.34408  0.24840  Biso   1.000  C
  C88      1.0000 0.31041  0.37489  0.19918  Biso   1.000  C
  N62      1.0000 0.17126  0.35630  0.33439  Biso   1.000  N
  H78      1.0000 0.03098  0.37458  0.30570  Biso   1.000  H
  H79      1.0000 0.07988  0.37698  0.40440  Biso   1.000  H
  H80      1.0000 0.56906  0.69379  0.83029  Biso   1.000  H
  H81      1.0000 0.62256  0.75021  0.81360  Biso   1.000  H
  N63      1.0000 0.66593  0.67852  0.76496  Biso   1.000  N
  C89      1.0000 0.77595  0.68101  0.60691  Biso   1.000  C
  C90      1.0000 0.74283  0.70431  0.73647  Biso   1.000  C
  C91      1.0000 0.25705  0.29569  0.26348  Biso   1.000  C
  H82      1.0000 0.12087  0.33152  0.20951  Biso   1.000  H
  N64      1.0000 0.33395  0.32148  0.23499  Biso   1.000  N
  O31      1.0000 0.35876  0.40586  0.16350  Biso   1.000  O
  C92      1.0000 0.22395  0.31899  0.39310  Biso   1.000  C
  C93      1.0000 0.68955  0.62511  0.80077  Biso   1.000  C
  N65      1.0000 0.82863  0.64370  0.66556  Biso   1.000  N
  O32      1.0000 0.77808  0.68454  0.53081  Biso   1.000  O
  C94      1.0000 0.81859  0.65592  0.75162  Biso   1.000  C
  H83      1.0000 0.76723  0.73960  0.76901  Biso   1.000  H
  H84      1.0000 0.23267  0.26040  0.23101  Biso   1.000  H
  N66      1.0000 0.27825  0.28592  0.35479  Biso   1.000  N
  C95      1.0000 0.40675  0.28570  0.21240  Biso   1.000  C
  O33      1.0000 0.22189  0.31546  0.46921  Biso   1.000  O
  N67      1.0000 0.77523  0.60919  0.78762  Biso   1.000  N
  O34      1.0000 0.64113  0.59414  0.83651  Biso   1.000  O
  C96      1.0000 0.91214  0.61259  0.65158  Biso   1.000  C
  H85      1.0000 0.87903  0.66848  0.79050  Biso   1.000  H
  C97      1.0000 0.33199  0.23561  0.39560  Biso   1.000  C
  H86      1.0000 0.43091  0.30621  0.16973  Biso   1.000  H
  H87      1.0000 0.37741  0.24979  0.18641  Biso   1.000  H
  N68      1.0000 0.48685  0.27109  0.28440  Biso   1.000  N
  C98      1.0000 0.83043  0.56089  0.83420  Biso   1.000  C
  N69      1.0000 0.90424  0.55011  0.65652  Biso   1.000  N
  H88      1.0000 0.96899  0.62542  0.69431  Biso   1.000  H
  H89      1.0000 0.92009  0.62302  0.59562  Biso   1.000  H
  H90      1.0000 0.31061  0.20149  0.36012  Biso   1.000  H
  H91      1.0000 0.31776  0.22898  0.45040  Biso   1.000  H
  N70      1.0000 0.43374  0.24098  0.40959  Biso   1.000  N
  C99      1.0000 0.57679  0.29508  0.29601  Biso   1.000  C
  C100     1.0000 0.48310  0.22488  0.34459  Biso   1.000  C
  N71      1.0000 0.84968  0.51569  0.77812  Biso   1.000  N
  H92      1.0000 0.79572  0.54400  0.87238  Biso   1.000  H
  H93      1.0000 0.89075  0.57568  0.86930  Biso   1.000  H
  C101     1.0000 0.90538  0.51420  0.58850  Biso   1.000  C
  C102     1.0000 0.92754  0.51852  0.73596  Biso   1.000  C
  C103     1.0000 0.49251  0.24242  0.49051  Biso   1.000  C
  N72      1.0000 0.63638  0.26711  0.36423  Biso   1.000  N
  O35      1.0000 0.59738  0.33374  0.25270  Biso   1.000  O
  H94      1.0000 0.45929  0.18810  0.31578  Biso   1.000  H
  C104     1.0000 0.58967  0.22038  0.39798  Biso   1.000  C
  C105     1.0000 0.81595  0.46019  0.77857  Biso   1.000  C
  N73      1.0000 0.92116  0.45870  0.61750  Biso   1.000  N
  O36      1.0000 0.89226  0.53052  0.51342  Biso   1.000  O
  C106     1.0000 0.93822  0.45491  0.70907  Biso   1.000  C
  H95      1.0000 0.98677  0.53301  0.77497  Biso   1.000  H
  N74      1.0000 0.58378  0.22920  0.48570  Biso   1.000  N
  O37      1.0000 0.46805  0.25206  0.55628  Biso   1.000  O
  C107     1.0000 0.73905  0.27279  0.38187  Biso   1.000  C
  H96      1.0000 0.61734  0.18229  0.39066  Biso   1.000  H
  N75      1.0000 0.86455  0.42406  0.73750  Biso   1.000  N
  O38      1.0000 0.75175  0.44531  0.81181  Biso   1.000  O
  C108     1.0000 0.94658  0.41271  0.56629  Biso   1.000  C
  H97      1.0000 0.00203  0.43942  0.73596  Biso   1.000  H
  C109     1.0000 0.66139  0.21912  0.55936  Biso   1.000  C
  H98      1.0000 0.75451  0.29338  0.33471  Biso   1.000  H
  H99      1.0000 0.76699  0.23409  0.38457  Biso   1.000  H
  N76      1.0000 0.78159  0.30259  0.45900  Biso   1.000  N
  C110     1.0000 0.86303  0.36149  0.74469  Biso   1.000  C
  N77      1.0000 0.87568  0.36764  0.54428  Biso   1.000  N
  H100     1.0000 0.95628  0.42938  0.51400  Biso   1.000  H
  H101     1.0000 0.00668  0.39548  0.59780  Biso   1.000  H
  H102     1.0000 0.63559  0.21140  0.60807  Biso   1.000  H
  H103     1.0000 0.69530  0.18439  0.54948  Biso   1.000  H
  N78      1.0000 0.72859  0.26646  0.58099  Biso   1.000  N
  C111     1.0000 0.83005  0.35499  0.46029  Biso   1.000  C
  C112     1.0000 0.80737  0.27488  0.54082  Biso   1.000  C
  N79      1.0000 0.82068  0.33278  0.66486  Biso   1.000  N
  H104     1.0000 0.82777  0.35102  0.78601  Biso   1.000  H
  H105     1.0000 0.92814  0.34762  0.76650  Biso   1.000  H
  C113     1.0000 0.87208  0.31978  0.60120  Biso   1.000  C
  C114     1.0000 0.74185  0.29678  0.65511  Biso   1.000  C
  O39      1.0000 0.82994  0.38431  0.39747  Biso   1.000  O
  H106     1.0000 0.84158  0.23819  0.53870  Biso   1.000  H
  H107     1.0000 0.93583  0.30390  0.62738  Biso   1.000  H
  O40      1.0000 0.69198  0.29299  0.70708  Biso   1.000  O
  Ne1      1.0000 0.49997  0.50000  0.49999  Biso   1.000  Ne
  He1      1.0000 0.42418  0.44678  0.66016  Biso   1.000  He
  He2      1.0000 0.56990  0.53511  0.34959  Biso   1.000  He
  Ar1      1.0000 0.49996  0.50000  0.49999  Biso   1.000  Ar
  Ne2      1.0000 0.49598  0.99008  0.00457  Biso   1.000  Ne
  He3      1.0000 0.42939  0.04990  0.14793  Biso   1.000  He
  He4      1.0000 0.56945  0.95075  0.85445  Biso   1.000  He
  Ar2      1.0000 0.49871  0.99456  0.00325  Biso   1.000  Ar
