data_image0
_cell_length_a       9.62
_cell_length_b       14.127
_cell_length_c       19.715
_cell_angle_alpha    79.85
_cell_angle_beta     87.07
_cell_angle_gamma    70.5

_symmetry_space_group_name_H-M    "P 1"
_symmetry_int_tables_number       1

loop_
  _symmetry_equiv_pos_as_xyz
  'x, y, z'

loop_
  _atom_site_label
  _atom_site_occupancy
  _atom_site_fract_x
  _atom_site_fract_y
  _atom_site_fract_z
  _atom_site_thermal_displace_type
  _atom_site_B_iso_or_equiv
  _atom_site_type_symbol
  O1       1.0000 0.62205  0.65803  0.47409  Biso   1.000  O
  S1       1.0000 0.55594  0.76119  0.48558  Biso   1.000  S
  C1       1.0000 0.36738  0.79350  0.47321  Biso   1.000  C
  O2       1.0000 0.60262  0.84190  0.44719  Biso   1.000  O
  N1       1.0000 0.58393  0.76009  0.56689  Biso   1.000  N
  C2       1.0000 0.30339  0.71983  0.47321  Biso   1.000  C
  C3       1.0000 0.28088  0.89510  0.45940  Biso   1.000  C
  C4       1.0000 0.54087  0.68388  0.61610  Biso   1.000  C
  C5       1.0000 0.54352  0.86110  0.58910  Biso   1.000  C
  C6       1.0000 0.15312  0.75002  0.46058  Biso   1.000  C
  H1       1.0000 0.36220  0.64902  0.48130  Biso   1.000  H
  C7       1.0000 0.13258  0.92140  0.44610  Biso   1.000  C
  H2       1.0000 0.32538  0.94613  0.46161  Biso   1.000  H
  C8       1.0000 0.65631  0.57829  0.63239  Biso   1.000  C
  H3       1.0000 0.51352  0.70938  0.65862  Biso   1.000  H
  H4       1.0000 0.45544  0.67632  0.59771  Biso   1.000  H
  C9       1.0000 0.62797  0.85559  0.65321  Biso   1.000  C
  H5       1.0000 0.56396  0.90907  0.55252  Biso   1.000  H
  H6       1.0000 0.43977  0.88413  0.59848  Biso   1.000  H
  C10      1.0000 0.06517  0.84851  0.44631  Biso   1.000  C
  H7       1.0000 0.10551  0.69948  0.46388  Biso   1.000  H
  H8       1.0000 0.07453  0.99218  0.43482  Biso   1.000  H
  C11      1.0000 0.61184  0.50117  0.67052  Biso   1.000  C
  C12      1.0000 0.80236  0.55738  0.61209  Biso   1.000  C
  C13      1.0000 0.56220  0.85511  0.71669  Biso   1.000  C
  C14      1.0000 0.77493  0.85203  0.64821  Biso   1.000  C
  C15      1.0000 0.90498  0.88139  0.42740  Biso   1.000  C
  C16      1.0000 0.71342  0.40487  0.68928  Biso   1.000  C
  H9       1.0000 0.51039  0.51447  0.68371  Biso   1.000  H
  C17      1.0000 0.90429  0.45901  0.62832  Biso   1.000  C
  H10      1.0000 0.83343  0.61103  0.58642  Biso   1.000  H
  C18      1.0000 0.64022  0.84586  0.77621  Biso   1.000  C
  H11      1.0000 0.45925  0.86232  0.71999  Biso   1.000  H
  C19      1.0000 0.85372  0.84742  0.70659  Biso   1.000  C
  H12      1.0000 0.82186  0.85227  0.60400  Biso   1.000  H
  H13      1.0000 0.87401  0.82293  0.42997  Biso   1.000  H
  H14      1.0000 0.89024  0.91898  0.38128  Biso   1.000  H
  H15      1.0000 0.84806  0.92401  0.45878  Biso   1.000  H
  C20      1.0000 0.65796  0.31866  0.72411  Biso   1.000  C
  C21      1.0000 0.85801  0.38428  0.66862  Biso   1.000  C
  C22      1.0000 0.05748  0.43418  0.59998  Biso   1.000  C
  C23      1.0000 0.78409  0.84232  0.76998  Biso   1.000  C
  C24      1.0000 0.56322  0.84011  0.84459  Biso   1.000  C
  C25      1.0000 0.00855  0.85420  0.70020  Biso   1.000  C
  N2       1.0000 0.75041  0.25200  0.78260  Biso   1.000  N
  H16      1.0000 0.65628  0.27681  0.69088  Biso   1.000  H
  H17      1.0000 0.55880  0.34803  0.73942  Biso   1.000  H
  H18      1.0000 0.92826  0.31773  0.68248  Biso   1.000  H
  C26      1.0000 0.13496  0.51189  0.59910  Biso   1.000  C
  H19      1.0000 0.11783  0.37218  0.62749  Biso   1.000  H
  H20      1.0000 0.05374  0.42083  0.55422  Biso   1.000  H
  H21      1.0000 0.84001  0.83577  0.81058  Biso   1.000  H
  N3       1.0000 0.60507  0.73501  0.88231  Biso   1.000  N
  H22      1.0000 0.45837  0.86617  0.83738  Biso   1.000  H
  H23      1.0000 0.58925  0.88142  0.87221  Biso   1.000  H
  C27      1.0000 0.12661  0.77161  0.74550  Biso   1.000  C
  H24      1.0000 0.04077  0.84907  0.65372  Biso   1.000  H
  H25      1.0000 0.00340  0.92044  0.70829  Biso   1.000  H
  S2       1.0000 0.77869  0.13073  0.78348  Biso   1.000  S
  C28      1.0000 0.71452  0.28607  0.84970  Biso   1.000  C
  C29      1.0000 0.15146  0.53782  0.66959  Biso   1.000  C
  H26      1.0000 0.23117  0.48823  0.57931  Biso   1.000  H
  H27      1.0000 0.07832  0.57309  0.56968  Biso   1.000  H
  S3       1.0000 0.54999  0.72478  0.96378  Biso   1.000  S
  C30      1.0000 0.58178  0.65973  0.84459  Biso   1.000  C
  C31      1.0000 0.14710  0.66191  0.73978  Biso   1.000  C
  H28      1.0000 0.09768  0.78042  0.79198  Biso   1.000  H
  H29      1.0000 0.21978  0.78252  0.73792  Biso   1.000  H
  O3       1.0000 0.84166  0.10851  0.71798  Biso   1.000  O
  O4       1.0000 0.85698  0.07690  0.84562  Biso   1.000  O
  C32      1.0000 0.60510  0.11749  0.78781  Biso   1.000  C
  C33      1.0000 0.76200  0.37583  0.85562  Biso   1.000  C
  H30      1.0000 0.61003  0.30512  0.85701  Biso   1.000  H
  H31      1.0000 0.76276  0.23014  0.88510  Biso   1.000  H
  C34      1.0000 0.13542  0.63620  0.67588  Biso   1.000  C
  C35      1.0000 0.18215  0.46460  0.72818  Biso   1.000  C
  O5       1.0000 0.60686  0.61853  0.99352  Biso   1.000  O
  O6       1.0000 0.58752  0.79911  0.99300  Biso   1.000  O
  C36      1.0000 0.35869  0.76239  0.96172  Biso   1.000  C
  C37      1.0000 0.69590  0.55498  0.85871  Biso   1.000  C
  H32      1.0000 0.48748  0.65318  0.85758  Biso   1.000  H
  H33      1.0000 0.57895  0.68482  0.79590  Biso   1.000  H
  C38      1.0000 0.17785  0.58620  0.79662  Biso   1.000  C
  C39      1.0000 0.53491  0.11820  0.72818  Biso   1.000  C
  C40      1.0000 0.53002  0.11461  0.84918  Biso   1.000  C
  C41      1.0000 0.65653  0.47238  0.85000  Biso   1.000  C
  C42      1.0000 0.90566  0.36402  0.87221  Biso   1.000  C
  H34      1.0000 0.11596  0.68830  0.63569  Biso   1.000  H
  C43      1.0000 0.19474  0.48723  0.79090  Biso   1.000  C
  H35      1.0000 0.19359  0.39562  0.72447  Biso   1.000  H
  C44      1.0000 0.27347  0.86362  0.95420  Biso   1.000  C
  C45      1.0000 0.28931  0.68981  0.96641  Biso   1.000  C
  C46      1.0000 0.83925  0.53902  0.87479  Biso   1.000  C
  H36      1.0000 0.18532  0.60301  0.84109  Biso   1.000  H
  C47      1.0000 0.39173  0.11459  0.73148  Biso   1.000  C
  H37      1.0000 0.58659  0.11968  0.68531  Biso   1.000  H
  C48      1.0000 0.38756  0.11110  0.85119  Biso   1.000  C
  H38      1.0000 0.57922  0.11532  0.89020  Biso   1.000  H
  H39      1.0000 0.55611  0.48093  0.83980  Biso   1.000  H
  C49      1.0000 0.94652  0.44522  0.88412  Biso   1.000  C
  H40      1.0000 0.97950  0.29780  0.87608  Biso   1.000  H
  C50      1.0000 0.21954  0.40732  0.85459  Biso   1.000  C
  C51      1.0000 0.12059  0.89233  0.95260  Biso   1.000  C
  H41      1.0000 0.32092  0.91412  0.95167  Biso   1.000  H
  C52      1.0000 0.13795  0.71832  0.96409  Biso   1.000  C
  H42      1.0000 0.34779  0.61903  0.97260  Biso   1.000  H
  H43      1.0000 0.86771  0.59619  0.88041  Biso   1.000  H
  C53      1.0000 0.31727  0.11098  0.79342  Biso   1.000  C
  H44      1.0000 0.34089  0.11552  0.69052  Biso   1.000  H
  H45      1.0000 0.33687  0.10878  0.89442  Biso   1.000  H
  C54      1.0000 0.09856  0.42809  0.90911  Biso   1.000  C
  H46      1.0000 0.22737  0.34344  0.84160  Biso   1.000  H
  H47      1.0000 0.31192  0.40007  0.87489  Biso   1.000  H
  C55      1.0000 0.04934  0.82119  0.95843  Biso   1.000  C
  H48      1.0000 0.06222  0.96310  0.94740  Biso   1.000  H
  H49      1.0000 0.09045  0.66801  0.96528  Biso   1.000  H
  C56      1.0000 0.16359  0.10559  0.79512  Biso   1.000  C
  H50      1.0000 0.09697  0.48900  0.92498  Biso   1.000  H
  H51      1.0000 0.12167  0.37371  0.94791  Biso   1.000  H
  C57      1.0000 0.88352  0.85387  0.96049  Biso   1.000  C
  H52      1.0000 0.12615  0.10279  0.84119  Biso   1.000  H
  H53      1.0000 0.16439  0.04622  0.77760  Biso   1.000  H
  H54      1.0000 0.10190  0.16551  0.76632  Biso   1.000  H
  H55      1.0000 0.84244  0.92673  0.95621  Biso   1.000  H
  H56      1.0000 0.84765  0.83210  0.92349  Biso   1.000  H
  H57      1.0000 0.85487  0.82268  0.00382  Biso   1.000  H
  O7       1.0000 0.37788  0.34200  0.52593  Biso   1.000  O
  S4       1.0000 0.44414  0.23878  0.51438  Biso   1.000  S
  N4       1.0000 0.41615  0.23987  0.43312  Biso   1.000  N
  O8       1.0000 0.39742  0.15813  0.55282  Biso   1.000  O
  C58      1.0000 0.63255  0.20654  0.52680  Biso   1.000  C
  C59      1.0000 0.45652  0.13893  0.41091  Biso   1.000  C
  C60      1.0000 0.45911  0.31607  0.38391  Biso   1.000  C
  C61      1.0000 0.69665  0.28020  0.52680  Biso   1.000  C
  C62      1.0000 0.71910  0.10486  0.54061  Biso   1.000  C
  C63      1.0000 0.37201  0.14437  0.34680  Biso   1.000  C
  H58      1.0000 0.43601  0.09089  0.44750  Biso   1.000  H
  H59      1.0000 0.56017  0.11591  0.40148  Biso   1.000  H
  C64      1.0000 0.34367  0.42167  0.36762  Biso   1.000  C
  H60      1.0000 0.48656  0.29058  0.34139  Biso   1.000  H
  H61      1.0000 0.54450  0.32371  0.40230  Biso   1.000  H
  C65      1.0000 0.84692  0.25003  0.53938  Biso   1.000  C
  H62      1.0000 0.63784  0.35101  0.51871  Biso   1.000  H
  C66      1.0000 0.86736  0.07863  0.55391  Biso   1.000  C
  H63      1.0000 0.67456  0.05390  0.53840  Biso   1.000  H
  C67      1.0000 0.43774  0.14492  0.28332  Biso   1.000  C
  C68      1.0000 0.22500  0.14800  0.35180  Biso   1.000  C
  C69      1.0000 0.38824  0.49879  0.32949  Biso   1.000  C
  C70      1.0000 0.19761  0.44258  0.38793  Biso   1.000  C
  C71      1.0000 0.93477  0.15153  0.55370  Biso   1.000  C
  H64      1.0000 0.89447  0.30049  0.53608  Biso   1.000  H
  H65      1.0000 0.92555  0.00778  0.56519  Biso   1.000  H
  C72      1.0000 0.35975  0.15409  0.22380  Biso   1.000  C
  H66      1.0000 0.54069  0.13771  0.28002  Biso   1.000  H
  C73      1.0000 0.14633  0.15261  0.29342  Biso   1.000  C
  H67      1.0000 0.17822  0.14769  0.39602  Biso   1.000  H
  C74      1.0000 0.28665  0.59510  0.31068  Biso   1.000  C
  H68      1.0000 0.48959  0.48549  0.31630  Biso   1.000  H
  C75      1.0000 0.09565  0.54103  0.37169  Biso   1.000  C
  H69      1.0000 0.16661  0.38900  0.41359  Biso   1.000  H
  C76      1.0000 0.09499  0.11856  0.57261  Biso   1.000  C
  C77      1.0000 0.21585  0.15773  0.22998  Biso   1.000  C
  C78      1.0000 0.43682  0.15992  0.15542  Biso   1.000  C
  C79      1.0000 0.99139  0.14583  0.29981  Biso   1.000  C
  C80      1.0000 0.34212  0.68129  0.27590  Biso   1.000  C
  C81      1.0000 0.14196  0.61568  0.33140  Biso   1.000  C
  C82      1.0000 0.94250  0.56579  0.39998  Biso   1.000  C
  H70      1.0000 0.12603  0.17712  0.56998  Biso   1.000  H
  H71      1.0000 0.10983  0.08099  0.61868  Biso   1.000  H
  H72      1.0000 0.15188  0.07603  0.54118  Biso   1.000  H
  H73      1.0000 0.15996  0.16420  0.18938  Biso   1.000  H
  N5       1.0000 0.39487  0.26502  0.11770  Biso   1.000  N
  H74      1.0000 0.54160  0.13380  0.16258  Biso   1.000  H
  H75      1.0000 0.41069  0.11862  0.12780  Biso   1.000  H
  C83      1.0000 0.87343  0.22842  0.25451  Biso   1.000  C
  H76      1.0000 0.95920  0.15088  0.34629  Biso   1.000  H
  H77      1.0000 0.99664  0.07959  0.29172  Biso   1.000  H
  N6       1.0000 0.24963  0.74803  0.21741  Biso   1.000  N
  H78      1.0000 0.34366  0.72324  0.30908  Biso   1.000  H
  H79      1.0000 0.44124  0.65200  0.26059  Biso   1.000  H
  H80      1.0000 0.07167  0.68231  0.31748  Biso   1.000  H
  C84      1.0000 0.86501  0.48807  0.40091  Biso   1.000  C
  H81      1.0000 0.88224  0.62778  0.37252  Biso   1.000  H
  H82      1.0000 0.94620  0.57920  0.44579  Biso   1.000  H
  S5       1.0000 0.44998  0.27519  0.03617  Biso   1.000  S
  C85      1.0000 0.41815  0.34030  0.15542  Biso   1.000  C
  C86      1.0000 0.85283  0.33814  0.26018  Biso   1.000  C
  H83      1.0000 0.90226  0.21962  0.20798  Biso   1.000  H
  H84      1.0000 0.78016  0.21751  0.26209  Biso   1.000  H
  C87      1.0000 0.28556  0.71389  0.15032  Biso   1.000  C
  S6       1.0000 0.22125  0.86931  0.21648  Biso   1.000  S
  C88      1.0000 0.84848  0.46221  0.33042  Biso   1.000  C
  H85      1.0000 0.76877  0.51181  0.42070  Biso   1.000  H
  H86      1.0000 0.92176  0.42688  0.43028  Biso   1.000  H
  O9       1.0000 0.39308  0.38150  0.00649  Biso   1.000  O
  O10      1.0000 0.41252  0.20093  0.00701  Biso   1.000  O
  C89      1.0000 0.64125  0.23764  0.03829  Biso   1.000  C
  C90      1.0000 0.30408  0.44498  0.14130  Biso   1.000  C
  H87      1.0000 0.51249  0.34679  0.14238  Biso   1.000  H
  H88      1.0000 0.42099  0.31521  0.20411  Biso   1.000  H
  C91      1.0000 0.86466  0.36377  0.32408  Biso   1.000  C
  C92      1.0000 0.82219  0.41384  0.20339  Biso   1.000  C
  C93      1.0000 0.23804  0.62421  0.14439  Biso   1.000  C
  H89      1.0000 0.39001  0.69492  0.14300  Biso   1.000  H
  H90      1.0000 0.23717  0.76990  0.11491  Biso   1.000  H
  O11      1.0000 0.15828  0.89154  0.28198  Biso   1.000  O
  O12      1.0000 0.14295  0.92313  0.15439  Biso   1.000  O
  C94      1.0000 0.39487  0.88247  0.21220  Biso   1.000  C
  C95      1.0000 0.81789  0.53544  0.27177  Biso   1.000  C
  C96      1.0000 0.72646  0.13641  0.04581  Biso   1.000  C
  C97      1.0000 0.71073  0.31022  0.03360  Biso   1.000  C
  C98      1.0000 0.34355  0.52758  0.15001  Biso   1.000  C
  C99      1.0000 0.16069  0.46101  0.12522  Biso   1.000  C
  H91      1.0000 0.88397  0.31173  0.36432  Biso   1.000  H
  C100     1.0000 0.80530  0.51281  0.20911  Biso   1.000  C
  H92      1.0000 0.81472  0.39702  0.15892  Biso   1.000  H
  C101     1.0000 0.09428  0.63601  0.12780  Biso   1.000  C
  C102     1.0000 0.46507  0.88177  0.27177  Biso   1.000  C
  C103     1.0000 0.47002  0.88544  0.15078  Biso   1.000  C
  H93      1.0000 0.80635  0.60443  0.27548  Biso   1.000  H
  C104     1.0000 0.87935  0.10770  0.04741  Biso   1.000  C
  H94      1.0000 0.67912  0.08593  0.04828  Biso   1.000  H
  C105     1.0000 0.86199  0.28171  0.03592  Biso   1.000  C
  H95      1.0000 0.65215  0.38101  0.02741  Biso   1.000  H
  H96      1.0000 0.44393  0.51910  0.16021  Biso   1.000  H
  C106     1.0000 0.05352  0.55481  0.11589  Biso   1.000  C
  H97      1.0000 0.13227  0.40377  0.11960  Biso   1.000  H
  C107     1.0000 0.78050  0.59271  0.14542  Biso   1.000  C
  H98      1.0000 0.02047  0.70217  0.12388  Biso   1.000  H
  C108     1.0000 0.60835  0.88538  0.26848  Biso   1.000  C
  H99      1.0000 0.41338  0.88028  0.31470  Biso   1.000  H
  C109     1.0000 0.61238  0.88893  0.14882  Biso   1.000  C
  H100     1.0000 0.42082  0.88471  0.10981  Biso   1.000  H
  C110     1.0000 0.95070  0.17884  0.04159  Biso   1.000  C
  H101     1.0000 0.93785  0.03686  0.05261  Biso   1.000  H
  H102     1.0000 0.90949  0.33203  0.03468  Biso   1.000  H
  C111     1.0000 0.90142  0.57187  0.09090  Biso   1.000  C
  H103     1.0000 0.77256  0.65660  0.15841  Biso   1.000  H
  H104     1.0000 0.68815  0.59989  0.12512  Biso   1.000  H
  C112     1.0000 0.68271  0.88898  0.20659  Biso   1.000  C
  H105     1.0000 0.65905  0.88451  0.30950  Biso   1.000  H
  H106     1.0000 0.66311  0.89118  0.10559  Biso   1.000  H
  C113     1.0000 0.11645  0.14609  0.03952  Biso   1.000  C
  H107     1.0000 0.90300  0.51097  0.07498  Biso   1.000  H
  H108     1.0000 0.87827  0.62632  0.05210  Biso   1.000  H
  C114     1.0000 0.83634  0.89444  0.20489  Biso   1.000  C
  H109     1.0000 0.14510  0.17727  0.99619  Biso   1.000  H
  H110     1.0000 0.15750  0.07331  0.04380  Biso   1.000  H
  H111     1.0000 0.15228  0.16793  0.07652  Biso   1.000  H
  H112     1.0000 0.87393  0.89717  0.15882  Biso   1.000  H
  H113     1.0000 0.83555  0.95381  0.22241  Biso   1.000  H
  H114     1.0000 0.89804  0.83452  0.23369  Biso   1.000  H
  Ne1      1.0000 0.36414  0.42562  0.26022  Biso   1.000  Ne
  He1      1.0000 0.40182  0.38488  0.26268  Biso   1.000  He
  He2      1.0000 0.91441  0.71506  0.23381  Biso   1.000  He
  Ar1      1.0000 0.34942  0.41088  0.25383  Biso   1.000  Ar
  Ne2      1.0000 0.63585  0.57439  0.73978  Biso   1.000  Ne
  He3      1.0000 0.61910  0.60223  0.74433  Biso   1.000  He
  He4      1.0000 0.79805  0.64991  0.73258  Biso   1.000  He
  Ar2      1.0000 0.65057  0.58912  0.74618  Biso   1.000  Ar
