data_image0
_cell_length_a       12.394
_cell_length_b       12.485
_cell_length_c       18.257
_cell_angle_alpha    94.02
_cell_angle_beta     92.53
_cell_angle_gamma    91.79

_symmetry_space_group_name_H-M    "P 1"
_symmetry_int_tables_number       1

loop_
  _symmetry_equiv_pos_as_xyz
  'x, y, z'

loop_
  _atom_site_label
  _atom_site_occupancy
  _atom_site_fract_x
  _atom_site_fract_y
  _atom_site_fract_z
  _atom_site_thermal_displace_type
  _atom_site_B_iso_or_equiv
  _atom_site_type_symbol
  C1       1.0000 0.55912  0.37425  0.47498  Biso   1.000  C
  C2       1.0000 0.46858  0.31287  0.48960  Biso   1.000  C
  C3       1.0000 0.56812  0.40996  0.40500  Biso   1.000  C
  C4       1.0000 0.64627  0.39949  0.53247  Biso   1.000  C
  C5       1.0000 0.38690  0.28790  0.43551  Biso   1.000  C
  H1       1.0000 0.46207  0.28747  0.53709  Biso   1.000  H
  C6       1.0000 0.48806  0.38786  0.35081  Biso   1.000  C
  H2       1.0000 0.63090  0.45043  0.39429  Biso   1.000  H
  C7       1.0000 0.72805  0.47730  0.52780  Biso   1.000  C
  C8       1.0000 0.65835  0.34735  0.59701  Biso   1.000  C
  C9       1.0000 0.39706  0.32614  0.36598  Biso   1.000  C
  C10      1.0000 0.29052  0.22253  0.45030  Biso   1.000  C
  C11      1.0000 0.49632  0.42854  0.27698  Biso   1.000  C
  H3       1.0000 0.73231  0.52006  0.48691  Biso   1.000  H
  S1       1.0000 0.81845  0.49081  0.59871  Biso   1.000  S
  H4       1.0000 0.73381  0.52321  0.48867  Biso   1.000  H
  C12      1.0000 0.79969  0.47852  0.58777  Biso   1.000  C
  C13      1.0000 0.74900  0.38807  0.63620  Biso   1.000  C
  H5       1.0000 0.61110  0.29231  0.61168  Biso   1.000  H
  H6       1.0000 0.60912  0.29265  0.60959  Biso   1.000  H
  S2       1.0000 0.76682  0.38847  0.65077  Biso   1.000  S
  H7       1.0000 0.34177  0.30991  0.32882  Biso   1.000  H
  H8       1.0000 0.23280  0.21425  0.41407  Biso   1.000  H
  N1       1.0000 0.28205  0.17720  0.50950  Biso   1.000  N
  H9       1.0000 0.43836  0.41400  0.24147  Biso   1.000  H
  N2       1.0000 0.57823  0.48168  0.26027  Biso   1.000  N
  H10      1.0000 0.86190  0.52523  0.59376  Biso   1.000  H
  H11      1.0000 0.77270  0.36066  0.68138  Biso   1.000  H
  C14      1.0000 0.18321  0.11490  0.52220  Biso   1.000  C
  C15      1.0000 0.58363  0.52069  0.18662  Biso   1.000  C
  C16      1.0000 0.08971  0.11360  0.46607  Biso   1.000  C
  H12      1.0000 0.15668  0.14227  0.57007  Biso   1.000  H
  H13      1.0000 0.20335  0.03962  0.52720  Biso   1.000  H
  C17      1.0000 0.48568  0.50262  0.13341  Biso   1.000  C
  H14      1.0000 0.64556  0.48687  0.16287  Biso   1.000  H
  H15      1.0000 0.60019  0.59896  0.19250  Biso   1.000  H
  C18      1.0000 0.07579  0.02782  0.41138  Biso   1.000  C
  C19      1.0000 0.01620  0.19555  0.46970  Biso   1.000  C
  C20      1.0000 0.40644  0.57908  0.13352  Biso   1.000  C
  C21      1.0000 0.47768  0.41172  0.08410  Biso   1.000  C
  C22      1.0000 0.98349  0.02371  0.36367  Biso   1.000  C
  C23      1.0000 0.16031  0.94413  0.40418  Biso   1.000  C
  C24      1.0000 0.03507  0.29110  0.52511  Biso   1.000  C
  C25      1.0000 0.92331  0.19090  0.42067  Biso   1.000  C
  C26      1.0000 0.31963  0.56832  0.08042  Biso   1.000  C
  C27      1.0000 0.41177  0.67454  0.19030  Biso   1.000  C
  C28      1.0000 0.39081  0.40122  0.03128  Biso   1.000  C
  C29      1.0000 0.55894  0.32530  0.08762  Biso   1.000  C
  C30      1.0000 0.96271  0.92608  0.30980  Biso   1.000  C
  C31      1.0000 0.90941  0.10505  0.36757  Biso   1.000  C
  H16      1.0000 0.23139  0.97680  0.41930  Biso   1.000  H
  H17      1.0000 0.16075  0.91513  0.35300  Biso   1.000  H
  H18      1.0000 0.14359  0.88604  0.43568  Biso   1.000  H
  H19      1.0000 0.00965  0.35600  0.50351  Biso   1.000  H
  H20      1.0000 0.11239  0.30011  0.53841  Biso   1.000  H
  H21      1.0000 0.99528  0.27904  0.56908  Biso   1.000  H
  C32      1.0000 0.84000  0.27542  0.42881  Biso   1.000  C
  C33      1.0000 0.31081  0.47748  0.03100  Biso   1.000  C
  C34      1.0000 0.23753  0.65491  0.07630  Biso   1.000  C
  H22      1.0000 0.45601  0.73293  0.17249  Biso   1.000  H
  H23      1.0000 0.44427  0.65293  0.23658  Biso   1.000  H
  H24      1.0000 0.33867  0.69925  0.19827  Biso   1.000  H
  C35      1.0000 0.38635  0.30872  0.97279  Biso   1.000  C
  H25      1.0000 0.52343  0.25542  0.07300  Biso   1.000  H
  H26      1.0000 0.58979  0.32487  0.13791  Biso   1.000  H
  H27      1.0000 0.61659  0.33927  0.05420  Biso   1.000  H
  H28      1.0000 0.99320  0.86331  0.33261  Biso   1.000  H
  H29      1.0000 0.88356  0.91272  0.30392  Biso   1.000  H
  N3       1.0000 0.00503  0.92891  0.23581  Biso   1.000  N
  C36      1.0000 0.81297  0.10205  0.31288  Biso   1.000  C
  H30      1.0000 0.76803  0.23993  0.41748  Biso   1.000  H
  H31      1.0000 0.84208  0.30276  0.48108  Biso   1.000  H
  N4       1.0000 0.84825  0.36812  0.38428  Biso   1.000  N
  C37      1.0000 0.21285  0.46287  0.97708  Biso   1.000  C
  H32      1.0000 0.27588  0.72471  0.09009  Biso   1.000  H
  H33      1.0000 0.21199  0.65619  0.02419  Biso   1.000  H
  N5       1.0000 0.14142  0.64964  0.12082  Biso   1.000  N
  H34      1.0000 0.35772  0.33576  0.92640  Biso   1.000  H
  H35      1.0000 0.46141  0.28737  0.96482  Biso   1.000  H
  N6       1.0000 0.32211  0.21116  0.98620  Biso   1.000  N
  C38      1.0000 0.05805  0.01040  0.21888  Biso   1.000  C
  H36      1.0000 0.83185  0.06442  0.26648  Biso   1.000  H
  H37      1.0000 0.79341  0.17565  0.30397  Biso   1.000  H
  H38      1.0000 0.75168  0.06424  0.33289  Biso   1.000  H
  C39      1.0000 0.92527  0.37674  0.34108  Biso   1.000  C
  H39      1.0000 0.14962  0.49301  0.00022  Biso   1.000  H
  H40      1.0000 0.19883  0.38606  0.96372  Biso   1.000  H
  H41      1.0000 0.22719  0.49998  0.93277  Biso   1.000  H
  C40      1.0000 0.13133  0.57451  0.16331  Biso   1.000  C
  C41      1.0000 0.27180  0.20694  0.04469  Biso   1.000  C
  H42      1.0000 0.07019  0.06970  0.25412  Biso   1.000  H
  C42      1.0000 0.10201  0.01584  0.14528  Biso   1.000  C
  H43      1.0000 0.97761  0.32283  0.33822  Biso   1.000  H
  C43      1.0000 0.93489  0.46894  0.29551  Biso   1.000  C
  C44      1.0000 0.03548  0.56674  0.20932  Biso   1.000  C
  H44      1.0000 0.18537  0.52253  0.16589  Biso   1.000  H
  C45      1.0000 0.20599  0.11182  0.06003  Biso   1.000  C
  H45      1.0000 0.27662  0.26703  0.07981  Biso   1.000  H
  C46      1.0000 0.16217  0.10609  0.12857  Biso   1.000  C
  C47      1.0000 0.08669  0.93103  0.09218  Biso   1.000  C
  C48      1.0000 0.02427  0.47904  0.25192  Biso   1.000  C
  C49      1.0000 0.85655  0.54553  0.29452  Biso   1.000  C
  C50      1.0000 0.95798  0.64335  0.21009  Biso   1.000  C
  C51      1.0000 0.18711  0.02632  0.00720  Biso   1.000  C
  H46      1.0000 0.17362  0.16474  0.16452  Biso   1.000  H
  C52      1.0000 0.12721  0.93502  0.02232  Biso   1.000  C
  H47      1.0000 0.04746  0.86830  0.10378  Biso   1.000  H
  H48      1.0000 0.07751  0.42586  0.25137  Biso   1.000  H
  H49      1.0000 0.79491  0.53785  0.32299  Biso   1.000  H
  C53      1.0000 0.86699  0.63405  0.25219  Biso   1.000  C
  H50      1.0000 0.96642  0.70360  0.18161  Biso   1.000  H
  H51      1.0000 0.21556  0.03051  0.95998  Biso   1.000  H
  C54      1.0000 0.10605  0.84525  0.96619  Biso   1.000  C
  C55      1.0000 0.78357  0.71642  0.25208  Biso   1.000  C
  C56      1.0000 0.15980  0.83153  0.90100  Biso   1.000  C
  C57      1.0000 0.03102  0.76109  0.97219  Biso   1.000  C
  C58      1.0000 0.71615  0.73845  0.31018  Biso   1.000  C
  C59      1.0000 0.76368  0.78184  0.19492  Biso   1.000  C
  H52      1.0000 0.21295  0.88196  0.88743  Biso   1.000  H
  S3       1.0000 0.12414  0.71986  0.84845  Biso   1.000  S
  H53      1.0000 0.22263  0.87091  0.88902  Biso   1.000  H
  C60      1.0000 0.10590  0.75079  0.85692  Biso   1.000  C
  H54      1.0000 0.98509  0.75509  0.01209  Biso   1.000  H
  H55      1.0000 0.98939  0.75597  0.01440  Biso   1.000  H
  C61      1.0000 0.03265  0.68777  0.91249  Biso   1.000  C
  S4       1.0000 0.01879  0.67010  0.90139  Biso   1.000  S
  H56      1.0000 0.71827  0.69941  0.35300  Biso   1.000  H
  S5       1.0000 0.63176  0.83804  0.29930  Biso   1.000  S
  H57      1.0000 0.71664  0.70603  0.35570  Biso   1.000  H
  C62      1.0000 0.64884  0.81690  0.28798  Biso   1.000  C
  C63      1.0000 0.68282  0.85040  0.21372  Biso   1.000  C
  H58      1.0000 0.79999  0.77964  0.15012  Biso   1.000  H
  H59      1.0000 0.80516  0.77771  0.15237  Biso   1.000  H
  S6       1.0000 0.66487  0.86722  0.20371  Biso   1.000  S
  H60      1.0000 0.11620  0.74046  0.80569  Biso   1.000  H
  H61      1.0000 0.98724  0.62478  0.90710  Biso   1.000  H
  H62      1.0000 0.59438  0.84289  0.31887  Biso   1.000  H
  H63      1.0000 0.65659  0.90144  0.18150  Biso   1.000  H
  C64      1.0000 0.44087  0.62582  0.52500  Biso   1.000  C
  C65      1.0000 0.35372  0.60057  0.46750  Biso   1.000  C
  C66      1.0000 0.43187  0.59010  0.59497  Biso   1.000  C
  C67      1.0000 0.53141  0.68727  0.51038  Biso   1.000  C
  C68      1.0000 0.27186  0.52276  0.47218  Biso   1.000  C
  C69      1.0000 0.34156  0.65271  0.40297  Biso   1.000  C
  C70      1.0000 0.51185  0.61220  0.64917  Biso   1.000  C
  H64      1.0000 0.36909  0.54964  0.60569  Biso   1.000  H
  C71      1.0000 0.61309  0.71216  0.56447  Biso   1.000  C
  H65      1.0000 0.53792  0.71267  0.46289  Biso   1.000  H
  S7       1.0000 0.18146  0.50925  0.40127  Biso   1.000  S
  H66      1.0000 0.26768  0.48000  0.51307  Biso   1.000  H
  H67      1.0000 0.26618  0.47685  0.51131  Biso   1.000  H
  C72      1.0000 0.20031  0.52154  0.41220  Biso   1.000  C
  C73      1.0000 0.25100  0.61199  0.36378  Biso   1.000  C
  S8       1.0000 0.23318  0.61167  0.34921  Biso   1.000  S
  H68      1.0000 0.38889  0.70775  0.38829  Biso   1.000  H
  H69      1.0000 0.39087  0.70741  0.39038  Biso   1.000  H
  C74      1.0000 0.60285  0.67392  0.63400  Biso   1.000  C
  C75      1.0000 0.50368  0.57153  0.72299  Biso   1.000  C
  C76      1.0000 0.70947  0.77753  0.54968  Biso   1.000  C
  H70      1.0000 0.13809  0.47483  0.40621  Biso   1.000  H
  H71      1.0000 0.22730  0.63940  0.31859  Biso   1.000  H
  H72      1.0000 0.65814  0.69015  0.67116  Biso   1.000  H
  H73      1.0000 0.56155  0.58606  0.75850  Biso   1.000  H
  N7       1.0000 0.42176  0.51838  0.73970  Biso   1.000  N
  H74      1.0000 0.76720  0.78581  0.58590  Biso   1.000  H
  N8       1.0000 0.71786  0.82286  0.49048  Biso   1.000  N
  C77      1.0000 0.41637  0.47937  0.81336  Biso   1.000  C
  C78      1.0000 0.81679  0.88516  0.47778  Biso   1.000  C
  C79      1.0000 0.51423  0.49744  0.86657  Biso   1.000  C
  H75      1.0000 0.35435  0.51319  0.83711  Biso   1.000  H
  H76      1.0000 0.39973  0.40118  0.80748  Biso   1.000  H
  C80      1.0000 0.91028  0.88647  0.53390  Biso   1.000  C
  H77      1.0000 0.84331  0.85787  0.42990  Biso   1.000  H
  H78      1.0000 0.79656  0.96045  0.47278  Biso   1.000  H
  C81      1.0000 0.59355  0.42098  0.86646  Biso   1.000  C
  C82      1.0000 0.52223  0.58834  0.91588  Biso   1.000  C
  C83      1.0000 0.92420  0.97224  0.58860  Biso   1.000  C
  C84      1.0000 0.98379  0.80451  0.53028  Biso   1.000  C
  C85      1.0000 0.68037  0.43174  0.91956  Biso   1.000  C
  C86      1.0000 0.58815  0.32553  0.80968  Biso   1.000  C
  C87      1.0000 0.60918  0.59884  0.96870  Biso   1.000  C
  C88      1.0000 0.44105  0.67476  0.91236  Biso   1.000  C
  C89      1.0000 0.83968  0.05594  0.59580  Biso   1.000  C
  C90      1.0000 0.01651  0.97635  0.63631  Biso   1.000  C
  C91      1.0000 0.96492  0.70896  0.47487  Biso   1.000  C
  C92      1.0000 0.07668  0.80916  0.57931  Biso   1.000  C
  C93      1.0000 0.68918  0.52258  0.96898  Biso   1.000  C
  C94      1.0000 0.76247  0.34515  0.92368  Biso   1.000  C
  H79      1.0000 0.54398  0.26713  0.82749  Biso   1.000  H
  H80      1.0000 0.55564  0.34713  0.76340  Biso   1.000  H
  H81      1.0000 0.66124  0.30081  0.80171  Biso   1.000  H
  C95      1.0000 0.61364  0.69142  0.02719  Biso   1.000  C
  H82      1.0000 0.47656  0.74465  0.92698  Biso   1.000  H
  H83      1.0000 0.41012  0.67519  0.86206  Biso   1.000  H
  H84      1.0000 0.38332  0.66079  0.94578  Biso   1.000  H
  H85      1.0000 0.76860  0.02326  0.58068  Biso   1.000  H
  H86      1.0000 0.83916  0.08493  0.64697  Biso   1.000  H
  H87      1.0000 0.85640  0.11402  0.56430  Biso   1.000  H
  C96      1.0000 0.09058  0.89501  0.63241  Biso   1.000  C
  C97      1.0000 0.03728  0.07399  0.69018  Biso   1.000  C
  H88      1.0000 0.99026  0.64407  0.49647  Biso   1.000  H
  H89      1.0000 0.88760  0.69995  0.46157  Biso   1.000  H
  H90      1.0000 0.00472  0.72103  0.43089  Biso   1.000  H
  C98      1.0000 0.15999  0.72465  0.57117  Biso   1.000  C
  C99      1.0000 0.78714  0.53720  0.02290  Biso   1.000  C
  H91      1.0000 0.72403  0.27535  0.90989  Biso   1.000  H
  H92      1.0000 0.78800  0.34387  0.97579  Biso   1.000  H
  N9       1.0000 0.85858  0.35043  0.87916  Biso   1.000  N
  H93      1.0000 0.64227  0.66430  0.07358  Biso   1.000  H
  H94      1.0000 0.53850  0.71269  0.03516  Biso   1.000  H
  N10      1.0000 0.67780  0.78891  0.01377  Biso   1.000  N
  C100     1.0000 0.18702  0.89809  0.68710  Biso   1.000  C
  N11      1.0000 0.99496  0.07115  0.76416  Biso   1.000  N
  H95      1.0000 0.00679  0.13675  0.66737  Biso   1.000  H
  H96      1.0000 0.11635  0.08734  0.69606  Biso   1.000  H
  H97      1.0000 0.23188  0.76013  0.58250  Biso   1.000  H
  H98      1.0000 0.15791  0.69730  0.51890  Biso   1.000  H
  N12      1.0000 0.15166  0.63194  0.61570  Biso   1.000  N
  H99      1.0000 0.85037  0.50705  0.99976  Biso   1.000  H
  H100     1.0000 0.80116  0.61400  0.03626  Biso   1.000  H
  H101     1.0000 0.77272  0.50008  0.06720  Biso   1.000  H
  C101     1.0000 0.86867  0.42555  0.83667  Biso   1.000  C
  C102     1.0000 0.72819  0.79312  0.95529  Biso   1.000  C
  H102     1.0000 0.16807  0.93564  0.73349  Biso   1.000  H
  H103     1.0000 0.20659  0.82441  0.69600  Biso   1.000  H
  H104     1.0000 0.24831  0.93582  0.66709  Biso   1.000  H
  C103     1.0000 0.94186  0.98966  0.78110  Biso   1.000  C
  C104     1.0000 0.07472  0.62332  0.65890  Biso   1.000  C
  C105     1.0000 0.96451  0.43332  0.79066  Biso   1.000  C
  H105     1.0000 0.81454  0.47753  0.83408  Biso   1.000  H
  C106     1.0000 0.79393  0.88825  0.94001  Biso   1.000  C
  H106     1.0000 0.72337  0.73303  0.92016  Biso   1.000  H
  H107     1.0000 0.92980  0.93036  0.74586  Biso   1.000  H
  C107     1.0000 0.89799  0.98430  0.85470  Biso   1.000  C
  H108     1.0000 0.02238  0.67723  0.66176  Biso   1.000  H
  C108     1.0000 0.06510  0.53112  0.70447  Biso   1.000  C
  C109     1.0000 0.97572  0.52102  0.74806  Biso   1.000  C
  C110     1.0000 0.04201  0.35671  0.78989  Biso   1.000  C
  C111     1.0000 0.83774  0.89397  0.87141  Biso   1.000  C
  C112     1.0000 0.81288  0.97375  0.99278  Biso   1.000  C
  C113     1.0000 0.91331  0.06903  0.90780  Biso   1.000  C
  C114     1.0000 0.14336  0.45454  0.70546  Biso   1.000  C
  H109     1.0000 0.92248  0.57429  0.74861  Biso   1.000  H
  C115     1.0000 0.13300  0.36601  0.74778  Biso   1.000  C
  H110     1.0000 0.03358  0.29646  0.81836  Biso   1.000  H
  H111     1.0000 0.82637  0.83532  0.83546  Biso   1.000  H
  H112     1.0000 0.78443  0.96963  0.03999  Biso   1.000  H
  C116     1.0000 0.87278  0.06504  0.97766  Biso   1.000  C
  H113     1.0000 0.95245  0.13176  0.89620  Biso   1.000  H
  H114     1.0000 0.20509  0.46222  0.67699  Biso   1.000  H
  C117     1.0000 0.21642  0.28364  0.74789  Biso   1.000  C
  C118     1.0000 0.89394  0.15481  0.03378  Biso   1.000  C
  C119     1.0000 0.28376  0.26162  0.68979  Biso   1.000  C
  C120     1.0000 0.23632  0.21822  0.80506  Biso   1.000  C
  C121     1.0000 0.84011  0.16853  0.09897  Biso   1.000  C
  C122     1.0000 0.96898  0.23897  0.02779  Biso   1.000  C
  H115     1.0000 0.28172  0.30065  0.64697  Biso   1.000  H
  S9       1.0000 0.36823  0.16202  0.70068  Biso   1.000  S
  H116     1.0000 0.28327  0.29404  0.64428  Biso   1.000  H
  C123     1.0000 0.35108  0.18316  0.71200  Biso   1.000  C
  C124     1.0000 0.31717  0.14966  0.78626  Biso   1.000  C
  H117     1.0000 0.20001  0.22043  0.84986  Biso   1.000  H
  H118     1.0000 0.19476  0.22235  0.84761  Biso   1.000  H
  S10      1.0000 0.33512  0.13284  0.79627  Biso   1.000  S
  H119     1.0000 0.78705  0.11810  0.11255  Biso   1.000  H
  S11      1.0000 0.87585  0.28020  0.15152  Biso   1.000  S
  H120     1.0000 0.77737  0.12923  0.11096  Biso   1.000  H
  C125     1.0000 0.89401  0.24927  0.14306  Biso   1.000  C
  C126     1.0000 0.96734  0.31229  0.08749  Biso   1.000  C
  S12      1.0000 0.98112  0.32996  0.09859  Biso   1.000  S
  H121     1.0000 0.01490  0.24497  0.98788  Biso   1.000  H
  H122     1.0000 0.01061  0.24409  0.98558  Biso   1.000  H
  H123     1.0000 0.40562  0.15717  0.68111  Biso   1.000  H
  H124     1.0000 0.34340  0.09862  0.81847  Biso   1.000  H
  H125     1.0000 0.88371  0.25960  0.19429  Biso   1.000  H
  H126     1.0000 0.01276  0.37528  0.09287  Biso   1.000  H
