data_image0
_cell_length_a       13.612
_cell_length_b       15.868
_cell_length_c       20.38
_cell_angle_alpha    100.3
_cell_angle_beta     98.71
_cell_angle_gamma    113.35

_symmetry_space_group_name_H-M    "P 1"
_symmetry_int_tables_number       1

loop_
  _symmetry_equiv_pos_as_xyz
  'x, y, z'

loop_
  _atom_site_label
  _atom_site_occupancy
  _atom_site_fract_x
  _atom_site_fract_y
  _atom_site_fract_z
  _atom_site_thermal_displace_type
  _atom_site_B_iso_or_equiv
  _atom_site_type_symbol
  C1       1.0000 0.80299  0.59118  0.61410  Biso   1.000  C
  C2       1.0000 0.86545  0.55377  0.65995  Biso   1.000  C
  H1       1.0000 0.76847  0.62378  0.64199  Biso   1.000  H
  H2       1.0000 0.74312  0.53682  0.57808  Biso   1.000  H
  C3       1.0000 0.87847  0.66110  0.57932  Biso   1.000  C
  C4       1.0000 0.87984  0.47329  0.63211  Biso   1.000  C
  C5       1.0000 0.91205  0.60131  0.73003  Biso   1.000  C
  H3       1.0000 0.83425  0.68195  0.54948  Biso   1.000  H
  H4       1.0000 0.91305  0.62925  0.55179  Biso   1.000  H
  H5       1.0000 0.93573  0.71647  0.61472  Biso   1.000  H
  C6       1.0000 0.83428  0.42304  0.55591  Biso   1.000  C
  C7       1.0000 0.93792  0.43875  0.67415  Biso   1.000  C
  C8       1.0000 0.96944  0.56689  0.77237  Biso   1.000  C
  C9       1.0000 0.90333  0.69258  0.75864  Biso   1.000  C
  N1       1.0000 0.72684  0.33836  0.53389  Biso   1.000  N
  H6       1.0000 0.82806  0.47004  0.53152  Biso   1.000  H
  H7       1.0000 0.88945  0.40418  0.53991  Biso   1.000  H
  C10      1.0000 0.98447  0.48657  0.74407  Biso   1.000  C
  C11      1.0000 0.95187  0.35089  0.64415  Biso   1.000  C
  C12      1.0000 0.01812  0.61699  0.84837  Biso   1.000  C
  N2       1.0000 0.80305  0.68665  0.78045  Biso   1.000  N
  H8       1.0000 0.96715  0.73105  0.79872  Biso   1.000  H
  H9       1.0000 0.91213  0.72855  0.72318  Biso   1.000  H
  C13      1.0000 0.67286  0.31087  0.57736  Biso   1.000  C
  C14      1.0000 0.05162  0.45249  0.78961  Biso   1.000  C
  H10      1.0000 0.88701  0.30834  0.60551  Biso   1.000  H
  H11      1.0000 0.95386  0.31609  0.67981  Biso   1.000  H
  C15      1.0000 0.05787  0.37419  0.61801  Biso   1.000  C
  H12      1.0000 0.97082  0.64549  0.86520  Biso   1.000  H
  H13      1.0000 0.01814  0.56948  0.87400  Biso   1.000  H
  C16      1.0000 0.13626  0.69509  0.86324  Biso   1.000  C
  C17      1.0000 0.72874  0.60715  0.78061  Biso   1.000  C
  C18      1.0000 0.56735  0.22374  0.55750  Biso   1.000  C
  H14      1.0000 0.70073  0.34716  0.62408  Biso   1.000  H
  N3       1.0000 0.99439  0.38435  0.82702  Biso   1.000  N
  H15      1.0000 0.08771  0.42319  0.76059  Biso   1.000  H
  H16      1.0000 0.11104  0.50920  0.82398  Biso   1.000  H
  H17      1.0000 0.05572  0.40752  0.58210  Biso   1.000  H
  H18      1.0000 0.06250  0.31502  0.59897  Biso   1.000  H
  H19      1.0000 0.12245  0.41478  0.65619  Biso   1.000  H
  H20      1.0000 0.13592  0.74469  0.84070  Biso   1.000  H
  H21      1.0000 0.18298  0.66756  0.84549  Biso   1.000  H
  H22      1.0000 0.16522  0.72287  0.91300  Biso   1.000  H
  C19      1.0000 0.62765  0.60107  0.80237  Biso   1.000  C
  H23      1.0000 0.73797  0.55099  0.76661  Biso   1.000  H
  C20      1.0000 0.53337  0.16032  0.49282  Biso   1.000  C
  C21      1.0000 0.50226  0.20445  0.60427  Biso   1.000  C
  C22      1.0000 0.89263  0.35880  0.82264  Biso   1.000  C
  C23      1.0000 0.61056  0.68207  0.82048  Biso   1.000  C
  C24      1.0000 0.54842  0.51397  0.80541  Biso   1.000  C
  C25      1.0000 0.43442  0.07705  0.47394  Biso   1.000  C
  H24      1.0000 0.57796  0.17372  0.46097  Biso   1.000  H
  C26      1.0000 0.40212  0.12307  0.58606  Biso   1.000  C
  H25      1.0000 0.52595  0.24707  0.64878  Biso   1.000  H
  C27      1.0000 0.83141  0.29168  0.86021  Biso   1.000  C
  H26      1.0000 0.85423  0.38315  0.79450  Biso   1.000  H
  C28      1.0000 0.51646  0.67815  0.84178  Biso   1.000  C
  H27      1.0000 0.66416  0.74146  0.81827  Biso   1.000  H
  C29      1.0000 0.45353  0.50805  0.82666  Biso   1.000  C
  H28      1.0000 0.55910  0.45815  0.79290  Biso   1.000  H
  C30      1.0000 0.39992  0.00931  0.40510  Biso   1.000  C
  C31      1.0000 0.36940  0.05963  0.52112  Biso   1.000  C
  C32      1.0000 0.33113  0.10592  0.63515  Biso   1.000  C
  C33      1.0000 0.71921  0.26574  0.85269  Biso   1.000  C
  C34      1.0000 0.88417  0.25466  0.90296  Biso   1.000  C
  C35      1.0000 0.43803  0.59020  0.84456  Biso   1.000  C
  C36      1.0000 0.50296  0.76680  0.86149  Biso   1.000  C
  C37      1.0000 0.37090  0.41477  0.82856  Biso   1.000  C
  C38      1.0000 0.46607  0.01373  0.35992  Biso   1.000  C
  C39      1.0000 0.29577  0.93153  0.37772  Biso   1.000  C
  H29      1.0000 0.30162  0.00369  0.50888  Biso   1.000  H
  N4       1.0000 0.23212  0.04476  0.61570  Biso   1.000  N
  H30      1.0000 0.36076  0.14168  0.68192  Biso   1.000  H
  C40      1.0000 0.65938  0.20317  0.88804  Biso   1.000  C
  H31      1.0000 0.68305  0.29058  0.82342  Biso   1.000  H
  H32      1.0000 0.96074  0.27199  0.90759  Biso   1.000  H
  C41      1.0000 0.82619  0.19255  0.93903  Biso   1.000  C
  H33      1.0000 0.37347  0.58626  0.85882  Biso   1.000  H
  C42      1.0000 0.45051  0.78528  0.91037  Biso   1.000  C
  C43      1.0000 0.54743  0.84536  0.83273  Biso   1.000  C
  N5       1.0000 0.28602  0.40449  0.85069  Biso   1.000  N
  H34      1.0000 0.38206  0.35998  0.81251  Biso   1.000  H
  H35      1.0000 0.54052  0.06010  0.37021  Biso   1.000  H
  H36      1.0000 0.53526  0.06540  0.36440  Biso   1.000  H
  S1       1.0000 0.40331  0.92946  0.28433  Biso   1.000  S
  C44      1.0000 0.41471  0.92881  0.30517  Biso   1.000  C
  C45      1.0000 0.28762  0.88132  0.31351  Biso   1.000  C
  S2       1.0000 0.27557  0.86409  0.30162  Biso   1.000  S
  H37      1.0000 0.23808  0.91565  0.40088  Biso   1.000  H
  H38      1.0000 0.23982  0.91872  0.40232  Biso   1.000  H
  C46      1.0000 0.16143  0.02834  0.66432  Biso   1.000  C
  C47      1.0000 0.54019  0.17475  0.88068  Biso   1.000  C
  C48      1.0000 0.71362  0.16777  0.93111  Biso   1.000  C
  C49      1.0000 0.88019  0.15415  0.98555  Biso   1.000  C
  S3       1.0000 0.45518  0.89639  0.92164  Biso   1.000  S
  H39      1.0000 0.41558  0.74148  0.93528  Biso   1.000  H
  H40      1.0000 0.58718  0.84577  0.79820  Biso   1.000  H
  C50      1.0000 0.52665  0.92059  0.86026  Biso   1.000  C
  C51      1.0000 0.20653  0.30927  0.85027  Biso   1.000  C
  H41      1.0000 0.45213  0.90960  0.27409  Biso   1.000  H
  H42      1.0000 0.22388  0.82514  0.28778  Biso   1.000  H
  C52      1.0000 0.20937  0.09056  0.73759  Biso   1.000  C
  H43      1.0000 0.09483  0.03561  0.64508  Biso   1.000  H
  H44      1.0000 0.13666  0.96140  0.66617  Biso   1.000  H
  N6       1.0000 0.48792  0.11668  0.91238  Biso   1.000  N
  H45      1.0000 0.50299  0.19977  0.85228  Biso   1.000  H
  H46      1.0000 0.67344  0.12589  0.95560  Biso   1.000  H
  C53      1.0000 0.82501  0.06926  0.00428  Biso   1.000  C
  C54      1.0000 0.99187  0.19759  0.01796  Biso   1.000  C
  H47      1.0000 0.54925  0.97835  0.84678  Biso   1.000  H
  C55      1.0000 0.23143  0.22504  0.82686  Biso   1.000  C
  H48      1.0000 0.13473  0.29603  0.82048  Biso   1.000  H
  H49      1.0000 0.19645  0.31136  0.89751  Biso   1.000  H
  C56      1.0000 0.19176  0.17203  0.75797  Biso   1.000  C
  C57      1.0000 0.26860  0.06424  0.78580  Biso   1.000  C
  C58      1.0000 0.36951  0.08778  0.90651  Biso   1.000  C
  H50      1.0000 0.74801  0.02954  0.98699  Biso   1.000  H
  H51      1.0000 0.74786  0.02937  0.98802  Biso   1.000  H
  C59      1.0000 0.89210  0.04982  0.04950  Biso   1.000  C
  S4       1.0000 0.91139  0.04809  0.05871  Biso   1.000  S
  H52      1.0000 0.04293  0.25621  0.01287  Biso   1.000  H
  S5       1.0000 0.02700  0.13303  0.06823  Biso   1.000  S
  H53      1.0000 0.04299  0.25421  0.01040  Biso   1.000  H
  C60      1.0000 0.02079  0.15138  0.06149  Biso   1.000  C
  C61      1.0000 0.29289  0.20037  0.87508  Biso   1.000  C
  C62      1.0000 0.12965  0.20153  0.70584  Biso   1.000  C
  C63      1.0000 0.30916  0.11858  0.85460  Biso   1.000  C
  C64      1.0000 0.28863  0.97679  0.76430  Biso   1.000  C
  H54      1.0000 0.36042  0.11227  0.95231  Biso   1.000  H
  H55      1.0000 0.33218  0.01733  0.89550  Biso   1.000  H
  H56      1.0000 0.86729  0.99670  0.06839  Biso   1.000  H
  H57      1.0000 0.09288  0.17373  0.08990  Biso   1.000  H
  C65      1.0000 0.34030  0.26080  0.94871  Biso   1.000  C
  H58      1.0000 0.14454  0.18377  0.66062  Biso   1.000  H
  H59      1.0000 0.15777  0.27153  0.71958  Biso   1.000  H
  C66      1.0000 0.00435  0.15564  0.69838  Biso   1.000  C
  H60      1.0000 0.35992  0.98720  0.79311  Biso   1.000  H
  H61      1.0000 0.29402  0.96802  0.71588  Biso   1.000  H
  C67      1.0000 0.19689  0.88663  0.77119  Biso   1.000  C
  H62      1.0000 0.35664  0.32759  0.94948  Biso   1.000  H
  H63      1.0000 0.41072  0.25877  0.96728  Biso   1.000  H
  C68      1.0000 0.26163  0.22726  0.99537  Biso   1.000  C
  H64      1.0000 0.96842  0.17512  0.66252  Biso   1.000  H
  H65      1.0000 0.98867  0.17638  0.74217  Biso   1.000  H
  H66      1.0000 0.97607  0.08625  0.68557  Biso   1.000  H
  H67      1.0000 0.12733  0.87252  0.73939  Biso   1.000  H
  H68      1.0000 0.18831  0.89622  0.81848  Biso   1.000  H
  H69      1.0000 0.21606  0.83320  0.76018  Biso   1.000  H
  H70      1.0000 0.18811  0.21955  0.97361  Biso   1.000  H
  H71      1.0000 0.29000  0.27473  0.03999  Biso   1.000  H
  H72      1.0000 0.25683  0.16628  0.00227  Biso   1.000  H
  C69      1.0000 0.19696  0.40895  0.38590  Biso   1.000  C
  C70      1.0000 0.13450  0.44636  0.34006  Biso   1.000  C
  H73      1.0000 0.23148  0.37636  0.35802  Biso   1.000  H
  H74      1.0000 0.25680  0.46325  0.42192  Biso   1.000  H
  C71      1.0000 0.12148  0.33904  0.42069  Biso   1.000  C
  C72      1.0000 0.08790  0.39883  0.26998  Biso   1.000  C
  C73      1.0000 0.12011  0.52685  0.36789  Biso   1.000  C
  H75      1.0000 0.16568  0.31816  0.45048  Biso   1.000  H
  H76      1.0000 0.08690  0.37088  0.44821  Biso   1.000  H
  H77      1.0000 0.06422  0.28366  0.38529  Biso   1.000  H
  C74      1.0000 0.09662  0.30756  0.24137  Biso   1.000  C
  C75      1.0000 0.03051  0.43325  0.22763  Biso   1.000  C
  C76      1.0000 0.06201  0.56137  0.32581  Biso   1.000  C
  C77      1.0000 0.16571  0.57702  0.44410  Biso   1.000  C
  N7       1.0000 0.19686  0.31341  0.21955  Biso   1.000  N
  H78      1.0000 0.03277  0.26901  0.20129  Biso   1.000  H
  H79      1.0000 0.08779  0.27151  0.27682  Biso   1.000  H
  C78      1.0000 0.01556  0.51356  0.25593  Biso   1.000  C
  C79      1.0000 0.98183  0.38315  0.15163  Biso   1.000  C
  C80      1.0000 0.04808  0.64925  0.35585  Biso   1.000  C
  N8       1.0000 0.27311  0.66178  0.46612  Biso   1.000  N
  H80      1.0000 0.17186  0.53002  0.46849  Biso   1.000  H
  H81      1.0000 0.11050  0.59596  0.46010  Biso   1.000  H
  C81      1.0000 0.27117  0.39291  0.21940  Biso   1.000  C
  C82      1.0000 0.94831  0.54763  0.21034  Biso   1.000  C
  H82      1.0000 0.02913  0.35465  0.13481  Biso   1.000  H
  H83      1.0000 0.98181  0.43066  0.12601  Biso   1.000  H
  C83      1.0000 0.86369  0.30505  0.13676  Biso   1.000  C
  H84      1.0000 0.11291  0.69173  0.39450  Biso   1.000  H
  H85      1.0000 0.04609  0.68405  0.32020  Biso   1.000  H
  C84      1.0000 0.94208  0.62595  0.38199  Biso   1.000  C
  C85      1.0000 0.32707  0.68925  0.42259  Biso   1.000  C
  C86      1.0000 0.37230  0.39906  0.19763  Biso   1.000  C
  H86      1.0000 0.26198  0.44914  0.23339  Biso   1.000  H
  N9       1.0000 0.00556  0.61579  0.17299  Biso   1.000  N
  H87      1.0000 0.91224  0.57695  0.23941  Biso   1.000  H
  H88      1.0000 0.88891  0.49094  0.17602  Biso   1.000  H
  H89      1.0000 0.86403  0.25545  0.15930  Biso   1.000  H
  H90      1.0000 0.81693  0.33251  0.15452  Biso   1.000  H
  H91      1.0000 0.83469  0.27719  0.08701  Biso   1.000  H
  H92      1.0000 0.94420  0.59255  0.41791  Biso   1.000  H
  H93      1.0000 0.93739  0.68503  0.40098  Biso   1.000  H
  H94      1.0000 0.87750  0.58535  0.34381  Biso   1.000  H
  C87      1.0000 0.43257  0.77633  0.44250  Biso   1.000  C
  H95      1.0000 0.29922  0.65298  0.37592  Biso   1.000  H
  C88      1.0000 0.38939  0.31807  0.17952  Biso   1.000  C
  C89      1.0000 0.45153  0.48616  0.19460  Biso   1.000  C
  C90      1.0000 0.10732  0.64134  0.17736  Biso   1.000  C
  C91      1.0000 0.49769  0.79569  0.39573  Biso   1.000  C
  C92      1.0000 0.46662  0.83974  0.50718  Biso   1.000  C
  C93      1.0000 0.48346  0.32191  0.15822  Biso   1.000  C
  H96      1.0000 0.33573  0.25858  0.18168  Biso   1.000  H
  C94      1.0000 0.54639  0.49202  0.17335  Biso   1.000  C
  H97      1.0000 0.44082  0.54192  0.20710  Biso   1.000  H
  C95      1.0000 0.16852  0.70844  0.13975  Biso   1.000  C
  H98      1.0000 0.14569  0.61691  0.20551  Biso   1.000  H
  C96      1.0000 0.59783  0.87707  0.41395  Biso   1.000  C
  H99      1.0000 0.47398  0.75305  0.35117  Biso   1.000  H
  H100     1.0000 0.42194  0.82633  0.53898  Biso   1.000  H
  C97      1.0000 0.56551  0.92306  0.52601  Biso   1.000  C
  C98      1.0000 0.56192  0.40993  0.15544  Biso   1.000  C
  C99      1.0000 0.49699  0.23333  0.13851  Biso   1.000  C
  C100     1.0000 0.62905  0.58537  0.17144  Biso   1.000  C
  C101     1.0000 0.28071  0.73433  0.14731  Biso   1.000  C
  C102     1.0000 0.11575  0.74541  0.09704  Biso   1.000  C
  C103     1.0000 0.66879  0.89414  0.36486  Biso   1.000  C
  C104     1.0000 0.63055  0.94051  0.47888  Biso   1.000  C
  C105     1.0000 0.60000  0.99076  0.59491  Biso   1.000  C
  H101     1.0000 0.62645  0.41381  0.14119  Biso   1.000  H
  C106     1.0000 0.54942  0.21484  0.08958  Biso   1.000  C
  C107     1.0000 0.45248  0.15470  0.16728  Biso   1.000  C
  N10      1.0000 0.71393  0.59564  0.14932  Biso   1.000  N
  H102     1.0000 0.61789  0.64015  0.18750  Biso   1.000  H
  C108     1.0000 0.34057  0.79697  0.11196  Biso   1.000  C
  H103     1.0000 0.31690  0.70956  0.17659  Biso   1.000  H
  H104     1.0000 0.03928  0.72814  0.09241  Biso   1.000  H
  C109     1.0000 0.17373  0.80752  0.06097  Biso   1.000  C
  N11      1.0000 0.76783  0.95538  0.38431  Biso   1.000  N
  H105     1.0000 0.63919  0.85845  0.31809  Biso   1.000  H
  H106     1.0000 0.69827  0.99636  0.49108  Biso   1.000  H
  C110     1.0000 0.53388  0.98640  0.64009  Biso   1.000  C
  C111     1.0000 0.70417  0.06861  0.62228  Biso   1.000  C
  S6       1.0000 0.54473  0.10368  0.07836  Biso   1.000  S
  H107     1.0000 0.58443  0.25863  0.06468  Biso   1.000  H
  H108     1.0000 0.41274  0.15429  0.20180  Biso   1.000  H
  C112     1.0000 0.47330  0.07955  0.13975  Biso   1.000  C
  C113     1.0000 0.79342  0.69086  0.14973  Biso   1.000  C
  C114     1.0000 0.45973  0.82532  0.11932  Biso   1.000  C
  C115     1.0000 0.28633  0.83237  0.06890  Biso   1.000  C
  C116     1.0000 0.11971  0.84590  0.01441  Biso   1.000  C
  C117     1.0000 0.83849  0.97178  0.33563  Biso   1.000  C
  H109     1.0000 0.45940  0.93996  0.62980  Biso   1.000  H
  H110     1.0000 0.46466  0.93467  0.63561  Biso   1.000  H
  S7       1.0000 0.59664  0.07067  0.71567  Biso   1.000  S
  C118     1.0000 0.58522  0.07131  0.69478  Biso   1.000  C
  H111     1.0000 0.76182  0.08440  0.59908  Biso   1.000  H
  C119     1.0000 0.71232  0.11882  0.68650  Biso   1.000  C
  H112     1.0000 0.76013  0.08142  0.59769  Biso   1.000  H
  S8       1.0000 0.72438  0.13605  0.69838  Biso   1.000  S
  H113     1.0000 0.45065  0.02169  0.15318  Biso   1.000  H
  C120     1.0000 0.76849  0.77502  0.17314  Biso   1.000  C
  H114     1.0000 0.86519  0.70404  0.17952  Biso   1.000  H
  H115     1.0000 0.80346  0.68871  0.10250  Biso   1.000  H
  N12      1.0000 0.51200  0.88344  0.08757  Biso   1.000  N
  H116     1.0000 0.49696  0.80037  0.14772  Biso   1.000  H
  H117     1.0000 0.32658  0.87425  0.04440  Biso   1.000  H
  C121     1.0000 0.17496  0.93079  0.99568  Biso   1.000  C
  C122     1.0000 0.00805  0.80248  0.98204  Biso   1.000  C
  C123     1.0000 0.79066  0.90958  0.26241  Biso   1.000  C
  H118     1.0000 0.90507  0.96444  0.35488  Biso   1.000  H
  H119     1.0000 0.86327  0.03872  0.33378  Biso   1.000  H
  H120     1.0000 0.54789  0.09053  0.72591  Biso   1.000  H
  H121     1.0000 0.77602  0.17490  0.71217  Biso   1.000  H
  C124     1.0000 0.80823  0.82803  0.24204  Biso   1.000  C
  C125     1.0000 0.70706  0.79976  0.12493  Biso   1.000  C
  C126     1.0000 0.63044  0.91236  0.09349  Biso   1.000  C
  H122     1.0000 0.25199  0.97052  0.01302  Biso   1.000  H
  H123     1.0000 0.25209  0.97077  0.01199  Biso   1.000  H
  C127     1.0000 0.10785  0.95031  0.95050  Biso   1.000  C
  S9       1.0000 0.08852  0.95197  0.94129  Biso   1.000  S
  H124     1.0000 0.95700  0.74391  0.98709  Biso   1.000  H
  S10      1.0000 0.97295  0.86710  0.93177  Biso   1.000  S
  H125     1.0000 0.95696  0.74592  0.98961  Biso   1.000  H
  C128     1.0000 0.97912  0.84869  0.93851  Biso   1.000  C
  C129     1.0000 0.73132  0.93583  0.21420  Biso   1.000  C
  C130     1.0000 0.87026  0.79854  0.29416  Biso   1.000  C
  C131     1.0000 0.69079  0.88155  0.14541  Biso   1.000  C
  C132     1.0000 0.65965  0.73934  0.05130  Biso   1.000  C
  H126     1.0000 0.63953  0.88787  0.04770  Biso   1.000  H
  H127     1.0000 0.66774  0.98274  0.10450  Biso   1.000  H
  H128     1.0000 0.13266  0.00344  0.93162  Biso   1.000  H
  H129     1.0000 0.90707  0.82641  0.91011  Biso   1.000  H
  C133     1.0000 0.71129  0.02328  0.23571  Biso   1.000  C
  H130     1.0000 0.85540  0.81637  0.33939  Biso   1.000  H
  H131     1.0000 0.84223  0.72854  0.28042  Biso   1.000  H
  C134     1.0000 0.99557  0.84443  0.30162  Biso   1.000  C
  H132     1.0000 0.64329  0.67252  0.05048  Biso   1.000  H
  H133     1.0000 0.58923  0.74136  0.03272  Biso   1.000  H
  C135     1.0000 0.73830  0.77285  0.00458  Biso   1.000  C
  H134     1.0000 0.64000  0.01286  0.20690  Biso   1.000  H
  H135     1.0000 0.70591  0.03209  0.28408  Biso   1.000  H
  C136     1.0000 0.80313  0.11351  0.22882  Biso   1.000  C
  H136     1.0000 0.03150  0.82494  0.33749  Biso   1.000  H
  H137     1.0000 0.01126  0.82374  0.25778  Biso   1.000  H
  H138     1.0000 0.02393  0.91387  0.31438  Biso   1.000  H
  H139     1.0000 0.81181  0.78052  0.02640  Biso   1.000  H
  H140     1.0000 0.70995  0.72541  0.96002  Biso   1.000  H
  H141     1.0000 0.74307  0.83377  0.99768  Biso   1.000  H
  H142     1.0000 0.87262  0.12762  0.26061  Biso   1.000  H
  H143     1.0000 0.81162  0.10390  0.18148  Biso   1.000  H
  H144     1.0000 0.78394  0.16692  0.23977  Biso   1.000  H
  Ne1      1.0000 0.40408  0.70428  0.25266  Biso   1.000  Ne
  He1      1.0000 0.52083  0.70765  0.24593  Biso   1.000  He
  He2      1.0000 0.48540  0.74692  0.24211  Biso   1.000  He
  He3      1.0000 0.49448  0.69530  0.20845  Biso   1.000  He
  Ar1      1.0000 0.42022  0.66962  0.24457  Biso   1.000  Ar
  Ne2      1.0000 0.59586  0.29583  0.74734  Biso   1.000  Ne
  He4      1.0000 0.80798  0.57451  0.04828  Biso   1.000  He
  He5      1.0000 0.51333  0.25662  0.75859  Biso   1.000  He
  He6      1.0000 0.47719  0.29324  0.75227  Biso   1.000  He
  Ar2      1.0000 0.57968  0.33044  0.75540  Biso   1.000  Ar
