data_image0
_cell_length_a       22.954
_cell_length_b       22.954
_cell_length_c       16.451
_cell_angle_alpha    90
_cell_angle_beta     90
_cell_angle_gamma    120

_symmetry_space_group_name_H-M    "P 1"
_symmetry_int_tables_number       1

loop_
  _symmetry_equiv_pos_as_xyz
  'x, y, z'

loop_
  _atom_site_label
  _atom_site_occupancy
  _atom_site_fract_x
  _atom_site_fract_y
  _atom_site_fract_z
  _atom_site_thermal_displace_type
  _atom_site_B_iso_or_equiv
  _atom_site_type_symbol
  C1       1.0000 0.30010  0.29499  0.38751  Biso   1.000  C
  C2       1.0000 0.23020  0.25520  0.39031  Biso   1.000  C
  C3       1.0000 0.33582  0.29001  0.32357  Biso   1.000  C
  H1       1.0000 0.32330  0.32588  0.43031  Biso   1.000  H
  C4       1.0000 0.19809  0.21068  0.32849  Biso   1.000  C
  C5       1.0000 0.19027  0.26108  0.45681  Biso   1.000  C
  C6       1.0000 0.30357  0.24624  0.25859  Biso   1.000  C
  H2       1.0000 0.38351  0.31682  0.32351  Biso   1.000  H
  C7       1.0000 0.23350  0.20570  0.26357  Biso   1.000  C
  H3       1.0000 0.15060  0.18271  0.33031  Biso   1.000  H
  N1       1.0000 0.21519  0.30595  0.51018  Biso   1.000  N
  H4       1.0000 0.14349  0.22939  0.45918  Biso   1.000  H
  C8       1.0000 0.34101  0.24584  0.18558  Biso   1.000  C
  H5       1.0000 0.20991  0.17421  0.22157  Biso   1.000  H
  C9       1.0000 0.16849  0.30440  0.57231  Biso   1.000  C
  C10      1.0000 0.30650  0.21324  0.11458  Biso   1.000  C
  C11      1.0000 0.41121  0.28126  0.18260  Biso   1.000  C
  C12      1.0000 0.19792  0.31159  0.65607  Biso   1.000  C
  H6       1.0000 0.12550  0.26128  0.56860  Biso   1.000  H
  H7       1.0000 0.15912  0.34142  0.56240  Biso   1.000  H
  H8       1.0000 0.25881  0.18749  0.11507  Biso   1.000  H
  C13      1.0000 0.34113  0.21812  0.04389  Biso   1.000  C
  C14      1.0000 0.44581  0.28649  0.11148  Biso   1.000  C
  H9       1.0000 0.43579  0.30218  0.23062  Biso   1.000  H
  C15      1.0000 0.23974  0.37528  0.68810  Biso   1.000  C
  C16      1.0000 0.18132  0.25329  0.70190  Biso   1.000  C
  C17      1.0000 0.41051  0.25545  0.04030  Biso   1.000  C
  H10      1.0000 0.31659  0.19518  0.99660  Biso   1.000  H
  H11      1.0000 0.49357  0.31119  0.11112  Biso   1.000  H
  C18      1.0000 0.26310  0.38217  0.76816  Biso   1.000  C
  C19      1.0000 0.26049  0.43750  0.63631  Biso   1.000  C
  C20      1.0000 0.20242  0.26098  0.78299  Biso   1.000  C
  C21      1.0000 0.14240  0.18452  0.66409  Biso   1.000  C
  C22      1.0000 0.44455  0.26254  0.96201  Biso   1.000  C
  C23      1.0000 0.24551  0.32487  0.81490  Biso   1.000  C
  C24      1.0000 0.30411  0.45103  0.80548  Biso   1.000  C
  H12      1.0000 0.22821  0.45320  0.64397  Biso   1.000  H
  H13      1.0000 0.26120  0.42639  0.57887  Biso   1.000  H
  H14      1.0000 0.30539  0.47312  0.65260  Biso   1.000  H
  C25      1.0000 0.17356  0.20082  0.83916  Biso   1.000  C
  H15      1.0000 0.14812  0.15212  0.69698  Biso   1.000  H
  H16      1.0000 0.15911  0.18578  0.60896  Biso   1.000  H
  H17      1.0000 0.09459  0.17089  0.66178  Biso   1.000  H
  N2       1.0000 0.50372  0.30822  0.94827  Biso   1.000  N
  H18      1.0000 0.42060  0.23110  0.92000  Biso   1.000  H
  C26      1.0000 0.27320  0.33231  0.89940  Biso   1.000  C
  N3       1.0000 0.37659  0.47810  0.79089  Biso   1.000  N
  H19      1.0000 0.29019  0.48192  0.78178  Biso   1.000  H
  H20      1.0000 0.29551  0.44822  0.86481  Biso   1.000  H
  N4       1.0000 0.21196  0.16601  0.85399  Biso   1.000  N
  H21      1.0000 0.16561  0.21561  0.89247  Biso   1.000  H
  H22      1.0000 0.12900  0.16721  0.81728  Biso   1.000  H
  C27      1.0000 0.52985  0.31003  0.86603  Biso   1.000  C
  H23      1.0000 0.24880  0.34600  0.93636  Biso   1.000  H
  H24      1.0000 0.32110  0.36642  0.89946  Biso   1.000  H
  H25      1.0000 0.26780  0.28910  0.91751  Biso   1.000  H
  C28      1.0000 0.41469  0.49933  0.85229  Biso   1.000  C
  C29      1.0000 0.26140  0.17828  0.80828  Biso   1.000  C
  C30      1.0000 0.60074  0.32155  0.86943  Biso   1.000  C
  H26      1.0000 0.52962  0.34650  0.83430  Biso   1.000  H
  H27      1.0000 0.50019  0.26692  0.83813  Biso   1.000  H
  H28      1.0000 0.39519  0.49641  0.90408  Biso   1.000  H
  C31      1.0000 0.48782  0.52830  0.84676  Biso   1.000  C
  H29      1.0000 0.27337  0.21068  0.76628  Biso   1.000  H
  C32      1.0000 0.30054  0.14407  0.81800  Biso   1.000  C
  C33      1.0000 0.61185  0.26717  0.87028  Biso   1.000  C
  C34      1.0000 0.65530  0.38815  0.87028  Biso   1.000  C
  C35      1.0000 0.51914  0.53032  0.77339  Biso   1.000  C
  C36      1.0000 0.52670  0.55501  0.91551  Biso   1.000  C
  C37      1.0000 0.35213  0.15750  0.76409  Biso   1.000  C
  C38      1.0000 0.28694  0.09754  0.88080  Biso   1.000  C
  C39      1.0000 0.55389  0.19579  0.87630  Biso   1.000  C
  C40      1.0000 0.67841  0.27919  0.86943  Biso   1.000  C
  C41      1.0000 0.64189  0.44610  0.87630  Biso   1.000  C
  C42      1.0000 0.72081  0.39927  0.86943  Biso   1.000  C
  H30      1.0000 0.49280  0.51100  0.72597  Biso   1.000  H
  C43      1.0000 0.58827  0.56035  0.76950  Biso   1.000  C
  C44      1.0000 0.59602  0.58439  0.91168  Biso   1.000  C
  H31      1.0000 0.50571  0.55320  0.96596  Biso   1.000  H
  H32      1.0000 0.36228  0.18940  0.72190  Biso   1.000  H
  C45      1.0000 0.38914  0.12506  0.77096  Biso   1.000  C
  C46      1.0000 0.32425  0.06620  0.88767  Biso   1.000  C
  H33      1.0000 0.25187  0.08778  0.91849  Biso   1.000  H
  H34      1.0000 0.51500  0.19589  0.90067  Biso   1.000  H
  H35      1.0000 0.56707  0.16918  0.91022  Biso   1.000  H
  H36      1.0000 0.54200  0.17602  0.82177  Biso   1.000  H
  C47      1.0000 0.73281  0.34469  0.87028  Biso   1.000  C
  C48      1.0000 0.68999  0.21983  0.86603  Biso   1.000  C
  H37      1.0000 0.68089  0.48499  0.90067  Biso   1.000  H
  H38      1.0000 0.60208  0.43287  0.91022  Biso   1.000  H
  H39      1.0000 0.63397  0.45798  0.82177  Biso   1.000  H
  C49      1.0000 0.78017  0.47015  0.86603  Biso   1.000  C
  H40      1.0000 0.60909  0.56201  0.71898  Biso   1.000  H
  C50      1.0000 0.62821  0.58847  0.83831  Biso   1.000  C
  H41      1.0000 0.62200  0.60210  0.95970  Biso   1.000  H
  H42      1.0000 0.42431  0.13502  0.73327  Biso   1.000  H
  C51      1.0000 0.37563  0.07817  0.83247  Biso   1.000  C
  H43      1.0000 0.31500  0.03552  0.93119  Biso   1.000  H
  C52      1.0000 0.80422  0.35812  0.87630  Biso   1.000  C
  N5       1.0000 0.69178  0.19554  0.94827  Biso   1.000  N
  H44      1.0000 0.65351  0.18311  0.83430  Biso   1.000  H
  H45      1.0000 0.73311  0.23331  0.83813  Biso   1.000  H
  N6       1.0000 0.80450  0.49626  0.94827  Biso   1.000  N
  H46      1.0000 0.81689  0.47040  0.83430  Biso   1.000  H
  H47      1.0000 0.76671  0.49978  0.83813  Biso   1.000  H
  C53      1.0000 0.70254  0.62439  0.83247  Biso   1.000  C
  C54      1.0000 0.41152  0.03974  0.83831  Biso   1.000  C
  H48      1.0000 0.80409  0.31908  0.90067  Biso   1.000  H
  H49      1.0000 0.83079  0.39791  0.91022  Biso   1.000  H
  H50      1.0000 0.82399  0.36602  0.82177  Biso   1.000  H
  C55      1.0000 0.73742  0.18200  0.96201  Biso   1.000  C
  C56      1.0000 0.81796  0.55542  0.96201  Biso   1.000  C
  C57      1.0000 0.73591  0.61080  0.77096  Biso   1.000  C
  C58      1.0000 0.74194  0.67575  0.88767  Biso   1.000  C
  C59      1.0000 0.43964  0.02792  0.76950  Biso   1.000  C
  C60      1.0000 0.41559  0.01162  0.91168  Biso   1.000  C
  C61      1.0000 0.74457  0.15509  0.04030  Biso   1.000  C
  H51      1.0000 0.76888  0.18950  0.92000  Biso   1.000  H
  C62      1.0000 0.84492  0.58947  0.04030  Biso   1.000  C
  H52      1.0000 0.81049  0.57941  0.92000  Biso   1.000  H
  C63      1.0000 0.80534  0.64788  0.76409  Biso   1.000  C
  H53      1.0000 0.71069  0.57569  0.73327  Biso   1.000  H
  H54      1.0000 0.72052  0.68500  0.93119  Biso   1.000  H
  C64      1.0000 0.81062  0.71307  0.88080  Biso   1.000  C
  H55      1.0000 0.43798  0.04709  0.71898  Biso   1.000  H
  C65      1.0000 0.46967  0.98883  0.77339  Biso   1.000  C
  H56      1.0000 0.39791  0.01992  0.95970  Biso   1.000  H
  C66      1.0000 0.44497  0.97168  0.91551  Biso   1.000  C
  C67      1.0000 0.78190  0.12300  0.04389  Biso   1.000  C
  C68      1.0000 0.71349  0.15932  0.11148  Biso   1.000  C
  C69      1.0000 0.87698  0.65889  0.04389  Biso   1.000  C
  C70      1.0000 0.84071  0.55421  0.11148  Biso   1.000  C
  C71      1.0000 0.84356  0.69949  0.81800  Biso   1.000  C
  H57      1.0000 0.82709  0.63772  0.72190  Biso   1.000  H
  H58      1.0000 0.83588  0.74809  0.91849  Biso   1.000  H
  C72      1.0000 0.47165  0.95950  0.84676  Biso   1.000  C
  H59      1.0000 0.48898  0.98179  0.72597  Biso   1.000  H
  H60      1.0000 0.44681  0.95251  0.96596  Biso   1.000  H
  C73      1.0000 0.78672  0.09327  0.11458  Biso   1.000  C
  H61      1.0000 0.80479  0.12139  0.99660  Biso   1.000  H
  H62      1.0000 0.68879  0.18241  0.11112  Biso   1.000  H
  C74      1.0000 0.71875  0.12994  0.18260  Biso   1.000  C
  C75      1.0000 0.90672  0.69345  0.11458  Biso   1.000  C
  H63      1.0000 0.87860  0.68339  0.99660  Biso   1.000  H
  H64      1.0000 0.81760  0.50642  0.11112  Biso   1.000  H
  C76      1.0000 0.87004  0.58882  0.18260  Biso   1.000  C
  C77      1.0000 0.91689  0.73863  0.80828  Biso   1.000  C
  C78      1.0000 0.50067  0.91534  0.85229  Biso   1.000  C
  C79      1.0000 0.75413  0.09518  0.18558  Biso   1.000  C
  H65      1.0000 0.81250  0.07128  0.11507  Biso   1.000  H
  H66      1.0000 0.69781  0.13361  0.23062  Biso   1.000  H
  C80      1.0000 0.90480  0.65894  0.18558  Biso   1.000  C
  H67      1.0000 0.92871  0.74119  0.11507  Biso   1.000  H
  H68      1.0000 0.86641  0.56422  0.23062  Biso   1.000  H
  N7       1.0000 0.95405  0.78803  0.85399  Biso   1.000  N
  H69      1.0000 0.93732  0.72661  0.76628  Biso   1.000  H
  N8       1.0000 0.52191  0.89848  0.79089  Biso   1.000  N
  H70      1.0000 0.50359  0.89879  0.90408  Biso   1.000  H
  C81      1.0000 0.75378  0.05735  0.25859  Biso   1.000  C
  C82      1.0000 0.94266  0.69642  0.25859  Biso   1.000  C
  C83      1.0000 0.02728  0.82646  0.83916  Biso   1.000  C
  C84      1.0000 0.54895  0.85306  0.80548  Biso   1.000  C
  C85      1.0000 0.79430  0.02782  0.26357  Biso   1.000  C
  C86      1.0000 0.71003  0.04583  0.32357  Biso   1.000  C
  C87      1.0000 0.97217  0.76650  0.26357  Biso   1.000  C
  C88      1.0000 0.95416  0.66418  0.32357  Biso   1.000  C
  C89      1.0000 0.05852  0.79754  0.78299  Biso   1.000  C
  H71      1.0000 0.04999  0.83441  0.89247  Biso   1.000  H
  H72      1.0000 0.03817  0.87098  0.81728  Biso   1.000  H
  C90      1.0000 0.61786  0.88093  0.76816  Biso   1.000  C
  H73      1.0000 0.51811  0.80829  0.78178  Biso   1.000  H
  H74      1.0000 0.55179  0.84732  0.86481  Biso   1.000  H
  H75      1.0000 0.82582  0.03572  0.22157  Biso   1.000  H
  C91      1.0000 0.78930  0.98742  0.32849  Biso   1.000  C
  H76      1.0000 0.68322  0.06670  0.32351  Biso   1.000  H
  C92      1.0000 0.70499  0.00508  0.38751  Biso   1.000  C
  H77      1.0000 0.96431  0.79009  0.22157  Biso   1.000  H
  C93      1.0000 0.01261  0.80191  0.32849  Biso   1.000  C
  H78      1.0000 0.93328  0.61649  0.32351  Biso   1.000  H
  C94      1.0000 0.99489  0.69989  0.38751  Biso   1.000  C
  C95      1.0000 0.07934  0.75447  0.81490  Biso   1.000  C
  C96      1.0000 0.07196  0.81866  0.70190  Biso   1.000  C
  C97      1.0000 0.62475  0.86448  0.68810  Biso   1.000  C
  C98      1.0000 0.67513  0.92062  0.81490  Biso   1.000  C
  C99      1.0000 0.74480  0.97500  0.39031  Biso   1.000  C
  H79      1.0000 0.81732  0.96791  0.33031  Biso   1.000  H
  H80      1.0000 0.67409  0.99738  0.43031  Biso   1.000  H
  C100     1.0000 0.02501  0.76982  0.39031  Biso   1.000  C
  H81      1.0000 0.03209  0.84940  0.33031  Biso   1.000  H
  H82      1.0000 0.00259  0.67670  0.43031  Biso   1.000  H
  C101     1.0000 0.11909  0.73692  0.76816  Biso   1.000  C
  C102     1.0000 0.05910  0.72681  0.89940  Biso   1.000  C
  C103     1.0000 0.11367  0.80206  0.65607  Biso   1.000  C
  C104     1.0000 0.04211  0.85760  0.66409  Biso   1.000  C
  C105     1.0000 0.68838  0.88631  0.65607  Biso   1.000  C
  C106     1.0000 0.56249  0.82298  0.63631  Biso   1.000  C
  C107     1.0000 0.73900  0.94145  0.78299  Biso   1.000  C
  C108     1.0000 0.66771  0.94089  0.89940  Biso   1.000  C
  C109     1.0000 0.73890  0.92922  0.45681  Biso   1.000  C
  C110     1.0000 0.07080  0.80971  0.45681  Biso   1.000  C
  C111     1.0000 0.13551  0.76026  0.68810  Biso   1.000  C
  C112     1.0000 0.14695  0.69592  0.80548  Biso   1.000  C
  H83      1.0000 0.09722  0.75120  0.93636  Biso   1.000  H
  H84      1.0000 0.04530  0.67892  0.89946  Biso   1.000  H
  H85      1.0000 0.02127  0.73219  0.91751  Biso   1.000  H
  C113     1.0000 0.13588  0.83149  0.57231  Biso   1.000  C
  H86      1.0000 0.00403  0.85191  0.69698  Biso   1.000  H
  H87      1.0000 0.02671  0.84090  0.60896  Biso   1.000  H
  H88      1.0000 0.07629  0.90539  0.66178  Biso   1.000  H
  C114     1.0000 0.69557  0.86408  0.57231  Biso   1.000  C
  C115     1.0000 0.74670  0.92801  0.70190  Biso   1.000  C
  H89      1.0000 0.54681  0.77499  0.64397  Biso   1.000  H
  H90      1.0000 0.57358  0.83480  0.57887  Biso   1.000  H
  H91      1.0000 0.52688  0.83228  0.65260  Biso   1.000  H
  C116     1.0000 0.79917  0.97273  0.83916  Biso   1.000  C
  H92      1.0000 0.65398  0.90281  0.93636  Biso   1.000  H
  H93      1.0000 0.63356  0.95468  0.89946  Biso   1.000  H
  H94      1.0000 0.71089  0.97872  0.91751  Biso   1.000  H
  N9       1.0000 0.69406  0.90925  0.51018  Biso   1.000  N
  H95      1.0000 0.77058  0.91408  0.45918  Biso   1.000  H
  N10      1.0000 0.09076  0.78481  0.51018  Biso   1.000  N
  H96      1.0000 0.08591  0.85649  0.45918  Biso   1.000  H
  C117     1.0000 0.17701  0.73948  0.63631  Biso   1.000  C
  N11      1.0000 0.10151  0.62343  0.79089  Biso   1.000  N
  H97      1.0000 0.19171  0.70980  0.78178  Biso   1.000  H
  H98      1.0000 0.15269  0.70452  0.86481  Biso   1.000  H
  H99      1.0000 0.13578  0.87450  0.56860  Biso   1.000  H
  H100     1.0000 0.18228  0.84090  0.56240  Biso   1.000  H
  H101     1.0000 0.73870  0.86418  0.56860  Biso   1.000  H
  H102     1.0000 0.65861  0.81769  0.56240  Biso   1.000  H
  C118     1.0000 0.81549  0.95789  0.66409  Biso   1.000  C
  N12      1.0000 0.83398  0.04593  0.85399  Biso   1.000  N
  H103     1.0000 0.78440  0.95000  0.89247  Biso   1.000  H
  H104     1.0000 0.83279  0.96182  0.81728  Biso   1.000  H
  H105     1.0000 0.22500  0.77178  0.64397  Biso   1.000  H
  H106     1.0000 0.16520  0.73878  0.57887  Biso   1.000  H
  H107     1.0000 0.16769  0.69461  0.65260  Biso   1.000  H
  C119     1.0000 0.08462  0.58530  0.85229  Biso   1.000  C
  H108     1.0000 0.84791  0.99598  0.69698  Biso   1.000  H
  H109     1.0000 0.81417  0.97329  0.60896  Biso   1.000  H
  H110     1.0000 0.82910  0.92369  0.66178  Biso   1.000  H
  C120     1.0000 0.82172  0.08310  0.80828  Biso   1.000  C
  H111     1.0000 0.10122  0.60482  0.90408  Biso   1.000  H
  C121     1.0000 0.04047  0.51216  0.84676  Biso   1.000  C
  H112     1.0000 0.78929  0.06268  0.76628  Biso   1.000  H
  C122     1.0000 0.85591  0.15645  0.81800  Biso   1.000  C
  C123     1.0000 0.01117  0.48082  0.77339  Biso   1.000  C
  C124     1.0000 0.02833  0.47332  0.91551  Biso   1.000  C
  C125     1.0000 0.84250  0.19463  0.76409  Biso   1.000  C
  C126     1.0000 0.90245  0.18940  0.88080  Biso   1.000  C
  C127     1.0000 0.97208  0.41170  0.76950  Biso   1.000  C
  H113     1.0000 0.01820  0.50717  0.72597  Biso   1.000  H
  C128     1.0000 0.98840  0.40400  0.91168  Biso   1.000  C
  H114     1.0000 0.04749  0.49430  0.96596  Biso   1.000  H
  H115     1.0000 0.81059  0.17290  0.72190  Biso   1.000  H
  C129     1.0000 0.87493  0.26410  0.77096  Biso   1.000  C
  C130     1.0000 0.93379  0.25801  0.88767  Biso   1.000  C
  H116     1.0000 0.91219  0.16409  0.91849  Biso   1.000  H
  H117     1.0000 0.95289  0.39092  0.71898  Biso   1.000  H
  C131     1.0000 0.96023  0.37180  0.83831  Biso   1.000  C
  H118     1.0000 0.98010  0.37799  0.95970  Biso   1.000  H
  H119     1.0000 0.86501  0.28930  0.73327  Biso   1.000  H
  C132     1.0000 0.92184  0.29745  0.83247  Biso   1.000  C
  H120     1.0000 0.96448  0.27949  0.93119  Biso   1.000  H
  C133     1.0000 0.41171  0.43962  0.23050  Biso   1.000  C
  C134     1.0000 0.37180  0.41155  0.16169  Biso   1.000  C
  C135     1.0000 0.48084  0.46965  0.22661  Biso   1.000  C
  H121     1.0000 0.39091  0.43801  0.28102  Biso   1.000  H
  C136     1.0000 0.29747  0.37563  0.16747  Biso   1.000  C
  C137     1.0000 0.40398  0.41562  0.08832  Biso   1.000  C
  C138     1.0000 0.51217  0.47166  0.15318  Biso   1.000  C
  H122     1.0000 0.50721  0.48901  0.27397  Biso   1.000  H
  C139     1.0000 0.25804  0.32422  0.11227  Biso   1.000  C
  C140     1.0000 0.26407  0.38916  0.22898  Biso   1.000  C
  H123     1.0000 0.37801  0.39791  0.04030  Biso   1.000  H
  C141     1.0000 0.47330  0.44500  0.08449  Biso   1.000  C
  C142     1.0000 0.58532  0.50069  0.14771  Biso   1.000  C
  H124     1.0000 0.27949  0.31501  0.06881  Biso   1.000  H
  C143     1.0000 0.18939  0.28694  0.11920  Biso   1.000  C
  C144     1.0000 0.19463  0.35213  0.23591  Biso   1.000  C
  H125     1.0000 0.28932  0.42432  0.26667  Biso   1.000  H
  H126     1.0000 0.49429  0.44681  0.03398  Biso   1.000  H
  N13      1.0000 0.62342  0.52191  0.20911  Biso   1.000  N
  H127     1.0000 0.60481  0.50360  0.09592  Biso   1.000  H
  C145     1.0000 0.15645  0.30052  0.18200  Biso   1.000  C
  H128     1.0000 0.16410  0.25188  0.08151  Biso   1.000  H
  H129     1.0000 0.17291  0.36230  0.27810  Biso   1.000  H
  C146     1.0000 0.69590  0.54898  0.19452  Biso   1.000  C
  C147     1.0000 0.08312  0.26138  0.19172  Biso   1.000  C
  C148     1.0000 0.73691  0.61785  0.23178  Biso   1.000  C
  H130     1.0000 0.70977  0.51809  0.21822  Biso   1.000  H
  H131     1.0000 0.70449  0.55180  0.13519  Biso   1.000  H
  N14      1.0000 0.04596  0.21199  0.14595  Biso   1.000  N
  H132     1.0000 0.06269  0.27341  0.23372  Biso   1.000  H
  C149     1.0000 0.76026  0.62474  0.31190  Biso   1.000  C
  C150     1.0000 0.75449  0.67514  0.18510  Biso   1.000  C
  C151     1.0000 0.97272  0.17355  0.16078  Biso   1.000  C
  C152     1.0000 0.80206  0.68837  0.34387  Biso   1.000  C
  C153     1.0000 0.73952  0.56251  0.36369  Biso   1.000  C
  C154     1.0000 0.79759  0.73903  0.21701  Biso   1.000  C
  C155     1.0000 0.72681  0.66770  0.10060  Biso   1.000  C
  C156     1.0000 0.94146  0.20243  0.21701  Biso   1.000  C
  H133     1.0000 0.95001  0.16560  0.10747  Biso   1.000  H
  H134     1.0000 0.96181  0.12898  0.18272  Biso   1.000  H
  C157     1.0000 0.81869  0.74673  0.29810  Biso   1.000  C
  C158     1.0000 0.83152  0.69562  0.42769  Biso   1.000  C
  H135     1.0000 0.77180  0.54682  0.35597  Biso   1.000  H
  H136     1.0000 0.73878  0.57358  0.42107  Biso   1.000  H
  H137     1.0000 0.69461  0.52689  0.34740  Biso   1.000  H
  C159     1.0000 0.82645  0.79920  0.16078  Biso   1.000  C
  H138     1.0000 0.75120  0.65402  0.06358  Biso   1.000  H
  H139     1.0000 0.67891  0.63359  0.10048  Biso   1.000  H
  H140     1.0000 0.73221  0.71091  0.08249  Biso   1.000  H
  C160     1.0000 0.92064  0.24549  0.18510  Biso   1.000  C
  C161     1.0000 0.92802  0.18130  0.29810  Biso   1.000  C
  C162     1.0000 0.85760  0.81549  0.33591  Biso   1.000  C
  N15      1.0000 0.78482  0.69406  0.48982  Biso   1.000  N
  H141     1.0000 0.87448  0.73868  0.43140  Biso   1.000  H
  H142     1.0000 0.84088  0.65859  0.43760  Biso   1.000  H
  N16      1.0000 0.78802  0.83396  0.14595  Biso   1.000  N
  H143     1.0000 0.83439  0.78441  0.10747  Biso   1.000  H
  H144     1.0000 0.87100  0.83280  0.18272  Biso   1.000  H
  C163     1.0000 0.88092  0.26310  0.23178  Biso   1.000  C
  C164     1.0000 0.94091  0.27321  0.10060  Biso   1.000  C
  C165     1.0000 0.88633  0.19795  0.34387  Biso   1.000  C
  C166     1.0000 0.95789  0.14241  0.33591  Biso   1.000  C
  H145     1.0000 0.85189  0.84789  0.30302  Biso   1.000  H
  H146     1.0000 0.84087  0.81419  0.39098  Biso   1.000  H
  H147     1.0000 0.90539  0.82908  0.33822  Biso   1.000  H
  C167     1.0000 0.80967  0.73888  0.54319  Biso   1.000  C
  C168     1.0000 0.73861  0.82173  0.19172  Biso   1.000  C
  C169     1.0000 0.86447  0.23970  0.31190  Biso   1.000  C
  C170     1.0000 0.85306  0.30409  0.19452  Biso   1.000  C
  H148     1.0000 0.90279  0.24881  0.06358  Biso   1.000  H
  H149     1.0000 0.95470  0.32110  0.10048  Biso   1.000  H
  H150     1.0000 0.97873  0.26782  0.08249  Biso   1.000  H
  C171     1.0000 0.86412  0.16852  0.42769  Biso   1.000  C
  H151     1.0000 0.99598  0.14810  0.30302  Biso   1.000  H
  H152     1.0000 0.97330  0.15911  0.39098  Biso   1.000  H
  H153     1.0000 0.92372  0.09462  0.33822  Biso   1.000  H
  H154     1.0000 0.85649  0.77057  0.54082  Biso   1.000  H
  C172     1.0000 0.76981  0.74482  0.60969  Biso   1.000  C
  H155     1.0000 0.72661  0.78929  0.23372  Biso   1.000  H
  C173     1.0000 0.69947  0.85594  0.18200  Biso   1.000  C
  C174     1.0000 0.82297  0.26048  0.36369  Biso   1.000  C
  N17      1.0000 0.89849  0.37658  0.20911  Biso   1.000  N
  H156     1.0000 0.80830  0.29021  0.21822  Biso   1.000  H
  H157     1.0000 0.84732  0.29549  0.13519  Biso   1.000  H
  N18      1.0000 0.90925  0.21520  0.48982  Biso   1.000  N
  H158     1.0000 0.86423  0.12551  0.43140  Biso   1.000  H
  H159     1.0000 0.81773  0.15911  0.43760  Biso   1.000  H
  C175     1.0000 0.80189  0.78929  0.67151  Biso   1.000  C
  C176     1.0000 0.69988  0.70497  0.61249  Biso   1.000  C
  C177     1.0000 0.64784  0.84251  0.23591  Biso   1.000  C
  C178     1.0000 0.71304  0.90242  0.11920  Biso   1.000  C
  H160     1.0000 0.77498  0.22818  0.35597  Biso   1.000  H
  H161     1.0000 0.83478  0.26118  0.42107  Biso   1.000  H
  H162     1.0000 0.83232  0.30540  0.34740  Biso   1.000  H
  C179     1.0000 0.91536  0.41466  0.14771  Biso   1.000  C
  C180     1.0000 0.92921  0.19030  0.54319  Biso   1.000  C
  H163     1.0000 0.84940  0.81731  0.66969  Biso   1.000  H
  C181     1.0000 0.76651  0.79432  0.73637  Biso   1.000  C
  C182     1.0000 0.66419  0.71000  0.67637  Biso   1.000  C
  H164     1.0000 0.67668  0.67409  0.56969  Biso   1.000  H
  H165     1.0000 0.63769  0.81061  0.27810  Biso   1.000  H
  C183     1.0000 0.61084  0.87490  0.22898  Biso   1.000  C
  C184     1.0000 0.67573  0.93376  0.11227  Biso   1.000  C
  H166     1.0000 0.74811  0.91218  0.08151  Biso   1.000  H
  H167     1.0000 0.89878  0.39520  0.09592  Biso   1.000  H
  C185     1.0000 0.95951  0.48781  0.15318  Biso   1.000  C
  H168     1.0000 0.91410  0.14352  0.54082  Biso   1.000  H
  C186     1.0000 0.97499  0.23020  0.60969  Biso   1.000  C
  H169     1.0000 0.79009  0.82581  0.77837  Biso   1.000  H
  C187     1.0000 0.69644  0.75377  0.74141  Biso   1.000  C
  H170     1.0000 0.61649  0.68319  0.67649  Biso   1.000  H
  H171     1.0000 0.57570  0.86499  0.26667  Biso   1.000  H
  C188     1.0000 0.62438  0.92184  0.16747  Biso   1.000  C
  H172     1.0000 0.68500  0.96450  0.06881  Biso   1.000  H
  C189     1.0000 0.98881  0.51915  0.22661  Biso   1.000  C
  C190     1.0000 0.97168  0.52669  0.08449  Biso   1.000  C
  C191     1.0000 0.00512  0.30012  0.61249  Biso   1.000  C
  C192     1.0000 0.98739  0.19810  0.67151  Biso   1.000  C
  C193     1.0000 0.65897  0.75412  0.81436  Biso   1.000  C
  C194     1.0000 0.58846  0.96022  0.16169  Biso   1.000  C
  C195     1.0000 0.02791  0.58827  0.23050  Biso   1.000  C
  H173     1.0000 0.98178  0.49279  0.27397  Biso   1.000  H
  C196     1.0000 0.01161  0.59601  0.08832  Biso   1.000  C
  H174     1.0000 0.95252  0.50572  0.03398  Biso   1.000  H
  C197     1.0000 0.04582  0.33579  0.67637  Biso   1.000  C
  H175     1.0000 0.99741  0.32331  0.56969  Biso   1.000  H
  C198     1.0000 0.02780  0.23352  0.73637  Biso   1.000  C
  H176     1.0000 0.96792  0.15061  0.66969  Biso   1.000  H
  C199     1.0000 0.69348  0.78672  0.88536  Biso   1.000  C
  C200     1.0000 0.58879  0.71876  0.81740  Biso   1.000  C
  C201     1.0000 0.56037  0.97209  0.23050  Biso   1.000  C
  C202     1.0000 0.58442  0.98839  0.08832  Biso   1.000  C
  H177     1.0000 0.04712  0.60909  0.28102  Biso   1.000  H
  C203     1.0000 0.03973  0.62821  0.16169  Biso   1.000  C
  H178     1.0000 0.01991  0.62202  0.04030  Biso   1.000  H
  C204     1.0000 0.05732  0.30354  0.74141  Biso   1.000  C
  H179     1.0000 0.06670  0.38347  0.67649  Biso   1.000  H
  H180     1.0000 0.03569  0.20992  0.77837  Biso   1.000  H
  H181     1.0000 0.74117  0.81248  0.88487  Biso   1.000  H
  C205     1.0000 0.65887  0.78189  0.95611  Biso   1.000  C
  C206     1.0000 0.55418  0.71348  0.88846  Biso   1.000  C
  H182     1.0000 0.56419  0.69778  0.76938  Biso   1.000  H
  H183     1.0000 0.56200  0.95288  0.28102  Biso   1.000  H
  C207     1.0000 0.53034  0.01118  0.22661  Biso   1.000  C
  H184     1.0000 0.60210  0.98009  0.04030  Biso   1.000  H
  C208     1.0000 0.55503  0.02833  0.08449  Biso   1.000  C
  C209     1.0000 0.07817  0.70256  0.16747  Biso   1.000  C
  C210     1.0000 0.09518  0.34102  0.81436  Biso   1.000  C
  C211     1.0000 0.58946  0.74456  0.95970  Biso   1.000  C
  H185     1.0000 0.68339  0.80478  0.00340  Biso   1.000  H
  H186     1.0000 0.50641  0.68878  0.88888  Biso   1.000  H
  C212     1.0000 0.52831  0.04051  0.15318  Biso   1.000  C
  H187     1.0000 0.51100  0.01817  0.27397  Biso   1.000  H
  H188     1.0000 0.55320  0.04750  0.03398  Biso   1.000  H
  C213     1.0000 0.12508  0.73591  0.22898  Biso   1.000  C
  C214     1.0000 0.06619  0.74195  0.11227  Biso   1.000  C
  C215     1.0000 0.09326  0.30651  0.88536  Biso   1.000  C
  C216     1.0000 0.12997  0.41119  0.81740  Biso   1.000  C
  C217     1.0000 0.55539  0.73742  0.03799  Biso   1.000  C
  C218     1.0000 0.49931  0.08463  0.14771  Biso   1.000  C
  C219     1.0000 0.15748  0.80533  0.23591  Biso   1.000  C
  H189     1.0000 0.13500  0.71071  0.26667  Biso   1.000  H
  H190     1.0000 0.03552  0.72052  0.06881  Biso   1.000  H
  C220     1.0000 0.09756  0.81061  0.11920  Biso   1.000  C
  H191     1.0000 0.07129  0.25882  0.88487  Biso   1.000  H
  C221     1.0000 0.12303  0.34112  0.95611  Biso   1.000  C
  C222     1.0000 0.15930  0.44580  0.88846  Biso   1.000  C
  H192     1.0000 0.13360  0.43579  0.76938  Biso   1.000  H
  N19      1.0000 0.49622  0.69174  0.05173  Biso   1.000  N
  H193     1.0000 0.57941  0.76891  0.08000  Biso   1.000  H
  N20      1.0000 0.47810  0.10153  0.20911  Biso   1.000  N
  H194     1.0000 0.49639  0.10118  0.09592  Biso   1.000  H
  C223     1.0000 0.14410  0.84356  0.18200  Biso   1.000  C
  H195     1.0000 0.18941  0.82711  0.27810  Biso   1.000  H
  H196     1.0000 0.08782  0.83592  0.08151  Biso   1.000  H
  C224     1.0000 0.15508  0.41054  0.95970  Biso   1.000  C
  H197     1.0000 0.12141  0.31662  0.00340  Biso   1.000  H
  H198     1.0000 0.18241  0.49359  0.88888  Biso   1.000  H
  C225     1.0000 0.47015  0.68998  0.13397  Biso   1.000  C
  C226     1.0000 0.45106  0.14695  0.19452  Biso   1.000  C
  C227     1.0000 0.17829  0.91691  0.19172  Biso   1.000  C
  C228     1.0000 0.18204  0.44460  0.03799  Biso   1.000  C
  C229     1.0000 0.39924  0.67841  0.13057  Biso   1.000  C
  H199     1.0000 0.47039  0.65351  0.16570  Biso   1.000  H
  H200     1.0000 0.49981  0.73309  0.16187  Biso   1.000  H
  C230     1.0000 0.38214  0.11908  0.23178  Biso   1.000  C
  H201     1.0000 0.48187  0.19167  0.21822  Biso   1.000  H
  H202     1.0000 0.44817  0.15269  0.13519  Biso   1.000  H
  N21      1.0000 0.16600  0.95403  0.14595  Biso   1.000  N
  H203     1.0000 0.21069  0.93728  0.23372  Biso   1.000  H
  N22      1.0000 0.19550  0.50375  0.05173  Biso   1.000  N
  H204     1.0000 0.18952  0.42060  0.08000  Biso   1.000  H
  C231     1.0000 0.34470  0.61186  0.12966  Biso   1.000  C
  C232     1.0000 0.38814  0.73279  0.12966  Biso   1.000  C
  C233     1.0000 0.32485  0.07934  0.18510  Biso   1.000  C
  C234     1.0000 0.37525  0.13553  0.31190  Biso   1.000  C
  C235     1.0000 0.20084  0.02728  0.16078  Biso   1.000  C
  C236     1.0000 0.21984  0.52986  0.13397  Biso   1.000  C
  C237     1.0000 0.27915  0.60074  0.13057  Biso   1.000  C
  C238     1.0000 0.35812  0.55391  0.12370  Biso   1.000  C
  C239     1.0000 0.32155  0.72082  0.13057  Biso   1.000  C
  C240     1.0000 0.44611  0.80423  0.12370  Biso   1.000  C
  C241     1.0000 0.26101  0.05857  0.21701  Biso   1.000  C
  C242     1.0000 0.33227  0.05907  0.10060  Biso   1.000  C
  C243     1.0000 0.31160  0.11365  0.34387  Biso   1.000  C
  C244     1.0000 0.43750  0.17699  0.36369  Biso   1.000  C
  H205     1.0000 0.21561  0.05002  0.10747  Biso   1.000  H
  H206     1.0000 0.16722  0.03819  0.18272  Biso   1.000  H
  H207     1.0000 0.18312  0.52961  0.16570  Biso   1.000  H
  H208     1.0000 0.23327  0.50018  0.16187  Biso   1.000  H
  C245     1.0000 0.26719  0.65532  0.12966  Biso   1.000  C
  H209     1.0000 0.31911  0.51502  0.09926  Biso   1.000  H
  H210     1.0000 0.39790  0.56709  0.08978  Biso   1.000  H
  H211     1.0000 0.36601  0.54199  0.17817  Biso   1.000  H
  C246     1.0000 0.31002  0.78018  0.13397  Biso   1.000  C
  H212     1.0000 0.48499  0.80407  0.09926  Biso   1.000  H
  H213     1.0000 0.43291  0.83079  0.08978  Biso   1.000  H
  H214     1.0000 0.45800  0.82400  0.17817  Biso   1.000  H
  C247     1.0000 0.25328  0.07195  0.29810  Biso   1.000  C
  H215     1.0000 0.34602  0.09720  0.06358  Biso   1.000  H
  H216     1.0000 0.36637  0.04529  0.10048  Biso   1.000  H
  H217     1.0000 0.28912  0.02129  0.08249  Biso   1.000  H
  C248     1.0000 0.30437  0.13589  0.42769  Biso   1.000  C
  H218     1.0000 0.45317  0.22498  0.35597  Biso   1.000  H
  H219     1.0000 0.42643  0.16521  0.42107  Biso   1.000  H
  H220     1.0000 0.47310  0.16768  0.34740  Biso   1.000  H
  C249     1.0000 0.19578  0.64189  0.12370  Biso   1.000  C
  N23      1.0000 0.30822  0.80448  0.05173  Biso   1.000  N
  H221     1.0000 0.34650  0.81690  0.16570  Biso   1.000  H
  H222     1.0000 0.26690  0.76670  0.16187  Biso   1.000  H
  C250     1.0000 0.18452  0.04212  0.33591  Biso   1.000  C
  N24      1.0000 0.30595  0.09076  0.48982  Biso   1.000  N
  H223     1.0000 0.26128  0.13579  0.43140  Biso   1.000  H
  H224     1.0000 0.34140  0.18232  0.43760  Biso   1.000  H
  H225     1.0000 0.19589  0.68088  0.09926  Biso   1.000  H
  H226     1.0000 0.16922  0.60210  0.08978  Biso   1.000  H
  H227     1.0000 0.17602  0.63399  0.17817  Biso   1.000  H
  C251     1.0000 0.26256  0.81796  0.03799  Biso   1.000  C
  H228     1.0000 0.15208  0.00399  0.30302  Biso   1.000  H
  H229     1.0000 0.18577  0.02667  0.39098  Biso   1.000  H
  H230     1.0000 0.17088  0.07628  0.33822  Biso   1.000  H
  C252     1.0000 0.26111  0.07079  0.54319  Biso   1.000  C
  C253     1.0000 0.25543  0.84492  0.95970  Biso   1.000  C
  H231     1.0000 0.23113  0.81051  0.08000  Biso   1.000  H
  H232     1.0000 0.22940  0.08588  0.54082  Biso   1.000  H
  C254     1.0000 0.25521  0.02501  0.60969  Biso   1.000  C
  C255     1.0000 0.21809  0.87697  0.95611  Biso   1.000  C
  C256     1.0000 0.28652  0.84070  0.88846  Biso   1.000  C
  C257     1.0000 0.29499  0.99488  0.61249  Biso   1.000  C
  C258     1.0000 0.21070  0.01259  0.67151  Biso   1.000  C
  C259     1.0000 0.21328  0.90675  0.88536  Biso   1.000  C
  H233     1.0000 0.19519  0.87858  0.00340  Biso   1.000  H
  H234     1.0000 0.31122  0.81761  0.88888  Biso   1.000  H
  C260     1.0000 0.28123  0.87002  0.81740  Biso   1.000  C
  C261     1.0000 0.28998  0.95418  0.67637  Biso   1.000  C
  H235     1.0000 0.32589  0.00258  0.56969  Biso   1.000  H
  C262     1.0000 0.20571  0.97219  0.73637  Biso   1.000  C
  H236     1.0000 0.18269  0.03211  0.66969  Biso   1.000  H
  C263     1.0000 0.24587  0.90484  0.81436  Biso   1.000  C
  H237     1.0000 0.18748  0.92868  0.88487  Biso   1.000  H
  H238     1.0000 0.30220  0.86640  0.76938  Biso   1.000  H
  C264     1.0000 0.24623  0.94267  0.74141  Biso   1.000  C
  H239     1.0000 0.31679  0.93331  0.67649  Biso   1.000  H
  H240     1.0000 0.17418  0.96430  0.77837  Biso   1.000  H
  Ne1      1.0000 0.66666  0.33333  0.52352  Biso   1.000  Ne
  He1      1.0000 0.66664  0.33330  0.78771  Biso   1.000  He
  He2      1.0000 0.84013  0.35962  0.42139  Biso   1.000  He
  He3      1.0000 0.63640  0.50115  0.40998  Biso   1.000  He
  He4      1.0000 0.49428  0.12976  0.40743  Biso   1.000  He
  Ar1      1.0000 0.66662  0.33307  0.48770  Biso   1.000  Ar
  Ne2      1.0000 0.33333  0.66666  0.47646  Biso   1.000  Ne
  He5      1.0000 0.12697  0.63500  0.59385  Biso   1.000  He
  He6      1.0000 0.50195  0.86573  0.59049  Biso   1.000  He
  He7      1.0000 0.36355  0.49915  0.58986  Biso   1.000  He
  He8      1.0000 0.33333  0.66667  0.21215  Biso   1.000  He
  Ar2      1.0000 0.33334  0.66672  0.50830  Biso   1.000  Ar
