data_image0
_cell_length_a       21.212
_cell_length_b       10.021
_cell_length_c       15.208
_cell_angle_alpha    90
_cell_angle_beta     111.47
_cell_angle_gamma    90

_symmetry_space_group_name_H-M    "P 1"
_symmetry_int_tables_number       1

loop_
  _symmetry_equiv_pos_as_xyz
  'x, y, z'

loop_
  _atom_site_label
  _atom_site_occupancy
  _atom_site_fract_x
  _atom_site_fract_y
  _atom_site_fract_z
  _atom_site_thermal_displace_type
  _atom_site_B_iso_or_equiv
  _atom_site_type_symbol
  O1       1.0000 0.58632  0.15268  0.41589  Biso   1.000  O
  C1       1.0000 0.60510  0.27602  0.38417  Biso   1.000  C
  C2       1.0000 0.57377  0.28800  0.27627  Biso   1.000  C
  C3       1.0000 0.68127  0.28500  0.41808  Biso   1.000  C
  O2       1.0000 0.50190  0.29438  0.24547  Biso   1.000  O
  C4       1.0000 0.60209  0.40904  0.24532  Biso   1.000  C
  O3       1.0000 0.70290  0.39816  0.38282  Biso   1.000  O
  O4       1.0000 0.70681  0.16675  0.39017  Biso   1.000  O
  C5       1.0000 0.67920  0.40395  0.27973  Biso   1.000  C
  O5       1.0000 0.57321  0.41024  0.14442  Biso   1.000  O
  C6       1.0000 0.75369  0.08702  0.46267  Biso   1.000  C
  C7       1.0000 0.71659  0.51103  0.25140  Biso   1.000  C
  C8       1.0000 0.54818  0.53298  0.09970  Biso   1.000  C
  C9       1.0000 0.82569  0.11596  0.47023  Biso   1.000  C
  C10      1.0000 0.73390  0.94402  0.43179  Biso   1.000  C
  O6       1.0000 0.70089  0.63896  0.27133  Biso   1.000  O
  O7       1.0000 0.78638  0.49296  0.28701  Biso   1.000  O
  C11      1.0000 0.47828  0.50704  0.02558  Biso   1.000  C
  O8       1.0000 0.59223  0.58597  0.05773  Biso   1.000  O
  C12      1.0000 0.85161  0.24998  0.51170  Biso   1.000  C
  O9       1.0000 0.87202  0.02026  0.53000  Biso   1.000  O
  C13      1.0000 0.78749  0.84902  0.49588  Biso   1.000  C
  O10      1.0000 0.66941  0.91867  0.43737  Biso   1.000  O
  O11      1.0000 0.43529  0.44926  0.06833  Biso   1.000  O
  C14      1.0000 0.48362  0.42002  0.94602  Biso   1.000  C
  C15      1.0000 0.60222  0.50105  0.98693  Biso   1.000  C
  O12      1.0000 0.84591  0.25926  0.60533  Biso   1.000  O
  C16      1.0000 0.85769  0.88704  0.50040  Biso   1.000  C
  O13      1.0000 0.77258  0.71300  0.46189  Biso   1.000  O
  C17      1.0000 0.53502  0.47780  0.90942  Biso   1.000  C
  O14      1.0000 0.41971  0.41154  0.87098  Biso   1.000  O
  C18      1.0000 0.65418  0.56402  0.95570  Biso   1.000  C
  O15      1.0000 0.85928  0.87107  0.40890  Biso   1.000  O
  O16      1.0000 0.54262  0.38190  0.84370  Biso   1.000  O
  O17      1.0000 0.71199  0.60204  0.02996  Biso   1.000  O
  O18      1.0000 0.63770  0.68895  0.91768  Biso   1.000  O
  C19      1.0000 0.91761  0.80900  0.39978  Biso   1.000  C
  C20      1.0000 0.52382  0.42301  0.74712  Biso   1.000  C
  C21      1.0000 0.89458  0.68097  0.34940  Biso   1.000  C
  C22      1.0000 0.94490  0.90899  0.34262  Biso   1.000  C
  C23      1.0000 0.48272  0.31204  0.68783  Biso   1.000  C
  O19      1.0000 0.58220  0.45045  0.72670  Biso   1.000  O
  C24      1.0000 0.94958  0.62000  0.31881  Biso   1.000  C
  O20      1.0000 0.87859  0.58587  0.40989  Biso   1.000  O
  C25      1.0000 0.98179  0.02505  0.40021  Biso   1.000  C
  O21      1.0000 0.99528  0.83964  0.31598  Biso   1.000  O
  C26      1.0000 0.52660  0.18501  0.70091  Biso   1.000  C
  O22      1.0000 0.42432  0.28540  0.70783  Biso   1.000  O
  C27      1.0000 0.62837  0.33959  0.73736  Biso   1.000  C
  C28      1.0000 0.97021  0.72398  0.26052  Biso   1.000  C
  O23      1.0000 0.92552  0.50324  0.26518  Biso   1.000  O
  O24      1.0000 0.99841  0.12055  0.34552  Biso   1.000  O
  C29      1.0000 0.59100  0.22054  0.68260  Biso   1.000  C
  O25      1.0000 0.49100  0.08093  0.63873  Biso   1.000  O
  C30      1.0000 0.68080  0.38799  0.70161  Biso   1.000  C
  O26      1.0000 0.91309  0.75322  0.18011  Biso   1.000  O
  O27      1.0000 0.63471  0.10458  0.71532  Biso   1.000  O
  O28      1.0000 0.65118  0.43179  0.60601  Biso   1.000  O
  C31      1.0000 0.91690  0.73296  0.08860  Biso   1.000  C
  C32      1.0000 0.66131  0.04301  0.65159  Biso   1.000  C
  C33      1.0000 0.85699  0.65283  0.03279  Biso   1.000  C
  C34      1.0000 0.91909  0.86598  0.04360  Biso   1.000  C
  C35      1.0000 0.65118  0.89602  0.65667  Biso   1.000  C
  O29      1.0000 0.73121  0.07494  0.67780  Biso   1.000  O
  C36      1.0000 0.85760  0.63297  0.93323  Biso   1.000  C
  O30      1.0000 0.85440  0.52590  0.07377  Biso   1.000  O
  O31      1.0000 0.91989  0.83934  0.94983  Biso   1.000  O
  C37      1.0000 0.97890  0.95000  0.09348  Biso   1.000  C
  C38      1.0000 0.69228  0.84542  0.75687  Biso   1.000  C
  O32      1.0000 0.58032  0.86658  0.62933  Biso   1.000  O
  C39      1.0000 0.77180  0.03303  0.77192  Biso   1.000  C
  C40      1.0000 0.86451  0.76799  0.89112  Biso   1.000  C
  O33      1.0000 0.80109  0.56232  0.87331  Biso   1.000  O
  O34      1.0000 0.04101  0.87935  0.11927  Biso   1.000  O
  C41      1.0000 0.76581  0.88205  0.77891  Biso   1.000  C
  O35      1.0000 0.68558  0.70223  0.75990  Biso   1.000  O
  C42      1.0000 0.84271  0.08203  0.78937  Biso   1.000  C
  O36      1.0000 0.80242  0.83834  0.87352  Biso   1.000  O
  O37      1.0000 0.87163  0.02794  0.72783  Biso   1.000  O
  O38      1.0000 0.41370  0.65273  0.58413  Biso   1.000  O
  C43      1.0000 0.39490  0.77597  0.61578  Biso   1.000  C
  C44      1.0000 0.31868  0.78495  0.58187  Biso   1.000  C
  C45      1.0000 0.42619  0.78805  0.72368  Biso   1.000  C
  O39      1.0000 0.29319  0.66670  0.60978  Biso   1.000  O
  O40      1.0000 0.29712  0.89821  0.61720  Biso   1.000  O
  C46      1.0000 0.39788  0.90899  0.75470  Biso   1.000  C
  O41      1.0000 0.49810  0.79443  0.75448  Biso   1.000  O
  C47      1.0000 0.24631  0.58697  0.53728  Biso   1.000  C
  C48      1.0000 0.32078  0.90400  0.72029  Biso   1.000  C
  O42      1.0000 0.42681  0.91019  0.85560  Biso   1.000  O
  C49      1.0000 0.26612  0.44397  0.56823  Biso   1.000  C
  C50      1.0000 0.17429  0.61601  0.52979  Biso   1.000  C
  C51      1.0000 0.28343  0.01098  0.74862  Biso   1.000  C
  C52      1.0000 0.45180  0.03303  0.90032  Biso   1.000  C
  C53      1.0000 0.21251  0.34897  0.50407  Biso   1.000  C
  O43      1.0000 0.33059  0.41872  0.56258  Biso   1.000  O
  O44      1.0000 0.12801  0.52031  0.47002  Biso   1.000  O
  C54      1.0000 0.14841  0.75002  0.48832  Biso   1.000  C
  O45      1.0000 0.21360  0.99301  0.71301  Biso   1.000  O
  O46      1.0000 0.29908  0.13901  0.72869  Biso   1.000  O
  C55      1.0000 0.52167  0.00699  0.97437  Biso   1.000  C
  O47      1.0000 0.40779  0.08602  0.94229  Biso   1.000  O
  C56      1.0000 0.14233  0.38699  0.49962  Biso   1.000  C
  O48      1.0000 0.22739  0.21295  0.53813  Biso   1.000  O
  O49      1.0000 0.15411  0.75931  0.39469  Biso   1.000  O
  O50      1.0000 0.56469  0.94931  0.93169  Biso   1.000  O
  C57      1.0000 0.51640  0.91997  0.05400  Biso   1.000  C
  C58      1.0000 0.39780  0.00100  0.01309  Biso   1.000  C
  O51      1.0000 0.14069  0.37112  0.59112  Biso   1.000  O
  C59      1.0000 0.46500  0.97785  0.09060  Biso   1.000  C
  O52      1.0000 0.58030  0.91149  0.12897  Biso   1.000  O
  C60      1.0000 0.34580  0.06397  0.04432  Biso   1.000  C
  C61      1.0000 0.08239  0.30895  0.60017  Biso   1.000  C
  O53      1.0000 0.45740  0.88195  0.15632  Biso   1.000  O
  O54      1.0000 0.28801  0.10199  0.96999  Biso   1.000  O
  O55      1.0000 0.36231  0.18900  0.08227  Biso   1.000  O
  C62      1.0000 0.10539  0.18102  0.65062  Biso   1.000  C
  C63      1.0000 0.05508  0.40904  0.65740  Biso   1.000  C
  C64      1.0000 0.47620  0.92296  0.25291  Biso   1.000  C
  C65      1.0000 0.05039  0.12005  0.68121  Biso   1.000  C
  O56      1.0000 0.12139  0.08592  0.59013  Biso   1.000  O
  C66      1.0000 0.01819  0.52500  0.59981  Biso   1.000  C
  O57      1.0000 0.00468  0.33959  0.68397  Biso   1.000  O
  C67      1.0000 0.51731  0.81199  0.31219  Biso   1.000  C
  O58      1.0000 0.41782  0.95050  0.27333  Biso   1.000  O
  C68      1.0000 0.02981  0.22403  0.73951  Biso   1.000  C
  O59      1.0000 0.07449  0.00319  0.73477  Biso   1.000  O
  O60      1.0000 0.00161  0.62050  0.65450  Biso   1.000  O
  C69      1.0000 0.47343  0.68496  0.29912  Biso   1.000  C
  O61      1.0000 0.57570  0.78535  0.29219  Biso   1.000  O
  C70      1.0000 0.37158  0.83964  0.26259  Biso   1.000  C
  O62      1.0000 0.08688  0.25317  0.81991  Biso   1.000  O
  C71      1.0000 0.40902  0.72049  0.31742  Biso   1.000  C
  O63      1.0000 0.50898  0.58088  0.36129  Biso   1.000  O
  C72      1.0000 0.31922  0.88804  0.29841  Biso   1.000  C
  C73      1.0000 0.08313  0.23301  0.91142  Biso   1.000  C
  O64      1.0000 0.36532  0.60463  0.28470  Biso   1.000  O
  O65      1.0000 0.34879  0.93184  0.39401  Biso   1.000  O
  C74      1.0000 0.14301  0.15278  0.96716  Biso   1.000  C
  C75      1.0000 0.08089  0.36603  0.95642  Biso   1.000  C
  C76      1.0000 0.33872  0.54296  0.34843  Biso   1.000  C
  O66      1.0000 0.14560  0.02595  0.92618  Biso   1.000  O
  C77      1.0000 0.14238  0.13302  0.06679  Biso   1.000  C
  C78      1.0000 0.02111  0.44996  0.90647  Biso   1.000  C
  O67      1.0000 0.08008  0.33929  0.05019  Biso   1.000  O
  C79      1.0000 0.34877  0.39597  0.34328  Biso   1.000  C
  O68      1.0000 0.26881  0.57489  0.32222  Biso   1.000  O
  C80      1.0000 0.13551  0.26804  0.10890  Biso   1.000  C
  O69      1.0000 0.19888  0.06227  0.12671  Biso   1.000  O
  O70      1.0000 0.95899  0.37940  0.88068  Biso   1.000  O
  C81      1.0000 0.30768  0.34537  0.24308  Biso   1.000  C
  O71      1.0000 0.41970  0.36663  0.37069  Biso   1.000  O
  C82      1.0000 0.22822  0.53298  0.22810  Biso   1.000  C
  O72      1.0000 0.19760  0.33829  0.12650  Biso   1.000  O
  C83      1.0000 0.23421  0.38200  0.22111  Biso   1.000  C
  O73      1.0000 0.31439  0.20218  0.24012  Biso   1.000  O
  C84      1.0000 0.15729  0.58198  0.21058  Biso   1.000  C
  O74      1.0000 0.12839  0.52789  0.27219  Biso   1.000  O
  Ne1      1.0000 0.27256  0.60475  0.91875  Biso   1.000  Ne
  He1      1.0000 0.34401  0.47358  0.93386  Biso   1.000  He
  He2      1.0000 0.14444  0.79591  0.90245  Biso   1.000  He
  Ar1      1.0000 0.33557  0.48382  0.93173  Biso   1.000  Ar
  Ne2      1.0000 0.72744  0.10475  0.08125  Biso   1.000  Ne
  He3      1.0000 0.00000  0.00000  0.00000  Biso   1.000  He
  He4      1.0000 0.79775  0.20947  0.08242  Biso   1.000  He
  Ar2      1.0000 0.58023  0.81266  0.04613  Biso   1.000  Ar
