data_image0
_cell_length_a       21.322
_cell_length_b       9.954
_cell_length_c       15.251
_cell_angle_alpha    90
_cell_angle_beta     111.2
_cell_angle_gamma    90

_symmetry_space_group_name_H-M    "P 1"
_symmetry_int_tables_number       1

loop_
  _symmetry_equiv_pos_as_xyz
  'x, y, z'

loop_
  _atom_site_label
  _atom_site_occupancy
  _atom_site_fract_x
  _atom_site_fract_y
  _atom_site_fract_z
  _atom_site_thermal_displace_type
  _atom_site_B_iso_or_equiv
  _atom_site_type_symbol
  O1       1.0000 0.58842  0.14718  0.41691  Biso   1.000  O
  C1       1.0000 0.60641  0.26904  0.38709  Biso   1.000  C
  C2       1.0000 0.57550  0.28602  0.27829  Biso   1.000  C
  C3       1.0000 0.68399  0.28200  0.41902  Biso   1.000  C
  O2       1.0000 0.50351  0.29315  0.25037  Biso   1.000  O
  C4       1.0000 0.60438  0.40999  0.24671  Biso   1.000  C
  O3       1.0000 0.70498  0.39672  0.38287  Biso   1.000  O
  O4       1.0000 0.70808  0.16295  0.38997  Biso   1.000  O
  C5       1.0000 0.68029  0.39964  0.27963  Biso   1.000  C
  O5       1.0000 0.57460  0.40979  0.14572  Biso   1.000  O
  C6       1.0000 0.75483  0.08117  0.46262  Biso   1.000  C
  C7       1.0000 0.71710  0.50904  0.24967  Biso   1.000  C
  C8       1.0000 0.54921  0.53295  0.10177  Biso   1.000  C
  C9       1.0000 0.82732  0.11362  0.47071  Biso   1.000  C
  C10      1.0000 0.73480  0.93611  0.43091  Biso   1.000  C
  O6       1.0000 0.70248  0.63954  0.27330  Biso   1.000  O
  O7       1.0000 0.78501  0.47599  0.26999  Biso   1.000  O
  C11      1.0000 0.47930  0.50924  0.02841  Biso   1.000  C
  O8       1.0000 0.59211  0.59032  0.05872  Biso   1.000  O
  C12      1.0000 0.85242  0.24603  0.51193  Biso   1.000  C
  O9       1.0000 0.87241  0.01286  0.53098  Biso   1.000  O
  C13      1.0000 0.78742  0.83896  0.49652  Biso   1.000  C
  O10      1.0000 0.67018  0.91230  0.43710  Biso   1.000  O
  O11      1.0000 0.43670  0.44836  0.07040  Biso   1.000  O
  C14      1.0000 0.48500  0.42003  0.94852  Biso   1.000  C
  C15      1.0000 0.60299  0.50301  0.98910  Biso   1.000  C
  O12      1.0000 0.84600  0.25397  0.60532  Biso   1.000  O
  C16      1.0000 0.85789  0.88045  0.50116  Biso   1.000  C
  O13      1.0000 0.77318  0.70384  0.46143  Biso   1.000  O
  C17      1.0000 0.53559  0.47900  0.91040  Biso   1.000  C
  O14      1.0000 0.42113  0.41260  0.87313  Biso   1.000  O
  C18      1.0000 0.65359  0.57404  0.95682  Biso   1.000  C
  O15      1.0000 0.85943  0.86357  0.40882  Biso   1.000  O
  O16      1.0000 0.54372  0.38286  0.84591  Biso   1.000  O
  O17      1.0000 0.71256  0.60498  0.02996  Biso   1.000  O
  O18      1.0000 0.63129  0.69299  0.91012  Biso   1.000  O
  C19      1.0000 0.91830  0.80289  0.40052  Biso   1.000  C
  C20      1.0000 0.52592  0.42315  0.74991  Biso   1.000  C
  C21      1.0000 0.89489  0.67249  0.34792  Biso   1.000  C
  C22      1.0000 0.94629  0.90004  0.34609  Biso   1.000  C
  C23      1.0000 0.48458  0.31023  0.68781  Biso   1.000  C
  O19      1.0000 0.58393  0.44997  0.72902  Biso   1.000  O
  C24      1.0000 0.95048  0.61423  0.31789  Biso   1.000  C
  O20      1.0000 0.87812  0.57615  0.40692  Biso   1.000  O
  C25      1.0000 0.98400  0.01798  0.40868  Biso   1.000  C
  O21      1.0000 0.99502  0.83363  0.31599  Biso   1.000  O
  C26      1.0000 0.52699  0.18425  0.70237  Biso   1.000  C
  O22      1.0000 0.42531  0.28461  0.71053  Biso   1.000  O
  C27      1.0000 0.62819  0.33856  0.73859  Biso   1.000  C
  C28      1.0000 0.97108  0.71951  0.26191  Biso   1.000  C
  O23      1.0000 0.92639  0.49437  0.26338  Biso   1.000  O
  O24      1.0000 0.00227  0.11553  0.35727  Biso   1.000  O
  C29      1.0000 0.59098  0.21640  0.68359  Biso   1.000  C
  O25      1.0000 0.48998  0.08097  0.63977  Biso   1.000  O
  C30      1.0000 0.68200  0.38738  0.70420  Biso   1.000  C
  O26      1.0000 0.91321  0.75136  0.18032  Biso   1.000  O
  O27      1.0000 0.63360  0.10167  0.71510  Biso   1.000  O
  O28      1.0000 0.65222  0.43008  0.60721  Biso   1.000  O
  C31      1.0000 0.91637  0.72855  0.08847  Biso   1.000  C
  C32      1.0000 0.66191  0.04280  0.65229  Biso   1.000  C
  C33      1.0000 0.85640  0.64778  0.03158  Biso   1.000  C
  C34      1.0000 0.91639  0.86428  0.04121  Biso   1.000  C
  C35      1.0000 0.65182  0.89190  0.65461  Biso   1.000  C
  O29      1.0000 0.73029  0.07394  0.67803  Biso   1.000  O
  C36      1.0000 0.85649  0.62909  0.93312  Biso   1.000  C
  O30      1.0000 0.85520  0.51959  0.07370  Biso   1.000  O
  O31      1.0000 0.91762  0.83504  0.94859  Biso   1.000  O
  C37      1.0000 0.97698  0.95198  0.09269  Biso   1.000  C
  C38      1.0000 0.69152  0.84187  0.75533  Biso   1.000  C
  O32      1.0000 0.58087  0.86418  0.62817  Biso   1.000  O
  C39      1.0000 0.77121  0.03195  0.77403  Biso   1.000  C
  C40      1.0000 0.86282  0.76100  0.88993  Biso   1.000  C
  O33      1.0000 0.79978  0.55525  0.87488  Biso   1.000  O
  O34      1.0000 0.03859  0.88065  0.12019  Biso   1.000  O
  C41      1.0000 0.76447  0.87904  0.77917  Biso   1.000  C
  O35      1.0000 0.68513  0.69791  0.75962  Biso   1.000  O
  C42      1.0000 0.84140  0.08499  0.79119  Biso   1.000  C
  O36      1.0000 0.80087  0.83424  0.87348  Biso   1.000  O
  O37      1.0000 0.87008  0.02682  0.72888  Biso   1.000  O
  O38      1.0000 0.41159  0.64718  0.58310  Biso   1.000  O
  C43      1.0000 0.39360  0.76904  0.61292  Biso   1.000  C
  C44      1.0000 0.31598  0.78200  0.58099  Biso   1.000  C
  C45      1.0000 0.42451  0.78602  0.72172  Biso   1.000  C
  O39      1.0000 0.29192  0.66295  0.61003  Biso   1.000  O
  O40      1.0000 0.29501  0.89672  0.61707  Biso   1.000  O
  C46      1.0000 0.39558  0.90999  0.75329  Biso   1.000  C
  O41      1.0000 0.49648  0.79315  0.74957  Biso   1.000  O
  C47      1.0000 0.24518  0.58117  0.53738  Biso   1.000  C
  C48      1.0000 0.31972  0.89964  0.72038  Biso   1.000  C
  O42      1.0000 0.42541  0.90979  0.85429  Biso   1.000  O
  C49      1.0000 0.26520  0.43611  0.56910  Biso   1.000  C
  C50      1.0000 0.17269  0.61362  0.52930  Biso   1.000  C
  C51      1.0000 0.28289  0.00904  0.75027  Biso   1.000  C
  C52      1.0000 0.45078  0.03295  0.89817  Biso   1.000  C
  C53      1.0000 0.21259  0.33896  0.50349  Biso   1.000  C
  O43      1.0000 0.32983  0.41230  0.56291  Biso   1.000  O
  O44      1.0000 0.12760  0.51286  0.46902  Biso   1.000  O
  C54      1.0000 0.14759  0.74603  0.48808  Biso   1.000  C
  O45      1.0000 0.21500  0.97599  0.73002  Biso   1.000  O
  O46      1.0000 0.29748  0.13954  0.72671  Biso   1.000  O
  C55      1.0000 0.52071  0.00924  0.97160  Biso   1.000  C
  O47      1.0000 0.40790  0.09032  0.94128  Biso   1.000  O
  C56      1.0000 0.14210  0.38045  0.49877  Biso   1.000  C
  O48      1.0000 0.22678  0.20384  0.53858  Biso   1.000  O
  O49      1.0000 0.15401  0.75397  0.39469  Biso   1.000  O
  O50      1.0000 0.56331  0.94836  0.92961  Biso   1.000  O
  C57      1.0000 0.51501  0.92003  0.05149  Biso   1.000  C
  C58      1.0000 0.39702  0.00301  0.01091  Biso   1.000  C
  O51      1.0000 0.14058  0.36357  0.59119  Biso   1.000  O
  C59      1.0000 0.46442  0.97900  0.08961  Biso   1.000  C
  O52      1.0000 0.57888  0.91260  0.12688  Biso   1.000  O
  C60      1.0000 0.34642  0.07404  0.04319  Biso   1.000  C
  C61      1.0000 0.08171  0.30289  0.59949  Biso   1.000  C
  O53      1.0000 0.45629  0.88286  0.15410  Biso   1.000  O
  O54      1.0000 0.28738  0.10498  0.96998  Biso   1.000  O
  O55      1.0000 0.36868  0.19299  0.08989  Biso   1.000  O
  C62      1.0000 0.10512  0.17249  0.65209  Biso   1.000  C
  C63      1.0000 0.05372  0.40004  0.65392  Biso   1.000  C
  C64      1.0000 0.47409  0.92315  0.25010  Biso   1.000  C
  C65      1.0000 0.04953  0.11423  0.68212  Biso   1.000  C
  O56      1.0000 0.12189  0.07615  0.59309  Biso   1.000  O
  C66      1.0000 0.01600  0.51798  0.59133  Biso   1.000  C
  O57      1.0000 0.00499  0.33363  0.68402  Biso   1.000  O
  C67      1.0000 0.51538  0.81023  0.31220  Biso   1.000  C
  O58      1.0000 0.41608  0.94997  0.27099  Biso   1.000  O
  C68      1.0000 0.02888  0.21951  0.73810  Biso   1.000  C
  O59      1.0000 0.07361  0.99437  0.73663  Biso   1.000  O
  O60      1.0000 0.99767  0.61553  0.64267  Biso   1.000  O
  C69      1.0000 0.47300  0.68425  0.29757  Biso   1.000  C
  O61      1.0000 0.57470  0.78461  0.28948  Biso   1.000  O
  C70      1.0000 0.37182  0.83856  0.26142  Biso   1.000  C
  O62      1.0000 0.08680  0.25136  0.81969  Biso   1.000  O
  C71      1.0000 0.40903  0.71640  0.31642  Biso   1.000  C
  O63      1.0000 0.51003  0.58097  0.36023  Biso   1.000  O
  C72      1.0000 0.31801  0.88738  0.29581  Biso   1.000  C
  C73      1.0000 0.08359  0.22855  0.91154  Biso   1.000  C
  O64      1.0000 0.36640  0.60167  0.28491  Biso   1.000  O
  O65      1.0000 0.34778  0.93008  0.39280  Biso   1.000  O
  C74      1.0000 0.14361  0.14778  0.96843  Biso   1.000  C
  C75      1.0000 0.08362  0.36428  0.95880  Biso   1.000  C
  C76      1.0000 0.33809  0.54280  0.34772  Biso   1.000  C
  O66      1.0000 0.14481  0.01959  0.92630  Biso   1.000  O
  C77      1.0000 0.14352  0.12909  0.06689  Biso   1.000  C
  C78      1.0000 0.02303  0.45198  0.90732  Biso   1.000  C
  O67      1.0000 0.08239  0.33504  0.05142  Biso   1.000  O
  C79      1.0000 0.34819  0.39190  0.34540  Biso   1.000  C
  O68      1.0000 0.26972  0.57394  0.32198  Biso   1.000  O
  C80      1.0000 0.13719  0.26100  0.11007  Biso   1.000  C
  O69      1.0000 0.20023  0.05525  0.12512  Biso   1.000  O
  O70      1.0000 0.96142  0.38065  0.87982  Biso   1.000  O
  C81      1.0000 0.30849  0.34187  0.24468  Biso   1.000  C
  O71      1.0000 0.41907  0.36418  0.37177  Biso   1.000  O
  C82      1.0000 0.22880  0.53195  0.22598  Biso   1.000  C
  O72      1.0000 0.19909  0.33424  0.12653  Biso   1.000  O
  C83      1.0000 0.23547  0.37904  0.22077  Biso   1.000  C
  O73      1.0000 0.31488  0.19791  0.24039  Biso   1.000  O
  C84      1.0000 0.15861  0.58499  0.20882  Biso   1.000  C
  O74      1.0000 0.12989  0.52682  0.27113  Biso   1.000  O
  Ne1      1.0000 0.27227  0.60174  0.91826  Biso   1.000  Ne
  He1      1.0000 0.00000  0.00000  0.00000  Biso   1.000  He
  He2      1.0000 0.14784  0.79966  0.92532  Biso   1.000  He
  Ar1      1.0000 0.41721  0.31071  0.95333  Biso   1.000  Ar
  Ne2      1.0000 0.72772  0.10174  0.08174  Biso   1.000  Ne
  He3      1.0000 0.00000  0.00000  0.00000  Biso   1.000  He
  He4      1.0000 0.78826  0.20673  0.05588  Biso   1.000  He
  Ar2      1.0000 0.58279  0.81071  0.04668  Biso   1.000  Ar
