data_image0
_cell_length_a       12.81
_cell_length_b       10.91
_cell_length_c       36.81
_cell_angle_alpha    90
_cell_angle_beta     97.49
_cell_angle_gamma    90

_symmetry_space_group_name_H-M    "P 1"
_symmetry_int_tables_number       1

loop_
  _symmetry_equiv_pos_as_xyz
  'x, y, z'

loop_
  _atom_site_label
  _atom_site_occupancy
  _atom_site_fract_x
  _atom_site_fract_y
  _atom_site_fract_z
  _atom_site_thermal_displace_type
  _atom_site_B_iso_or_equiv
  _atom_site_type_symbol
  C1       1.0000 0.71311  0.52603  0.45660  Biso   1.000  C
  C2       1.0000 0.68567  0.53896  0.41670  Biso   1.000  C
  N1       1.0000 0.80230  0.55005  0.47359  Biso   1.000  N
  H1       1.0000 0.65981  0.49890  0.47041  Biso   1.000  H
  C3       1.0000 0.58149  0.52896  0.40199  Biso   1.000  C
  C4       1.0000 0.76969  0.56700  0.39739  Biso   1.000  C
  C5       1.0000 0.81503  0.53300  0.51321  Biso   1.000  C
  C6       1.0000 0.55546  0.55197  0.36459  Biso   1.000  C
  H2       1.0000 0.52912  0.50660  0.41681  Biso   1.000  H
  C7       1.0000 0.73810  0.58598  0.35889  Biso   1.000  C
  H3       1.0000 0.84064  0.57314  0.40859  Biso   1.000  H
  C8       1.0000 0.89102  0.42997  0.52809  Biso   1.000  C
  H4       1.0000 0.74461  0.51650  0.52069  Biso   1.000  H
  H5       1.0000 0.84029  0.61127  0.52499  Biso   1.000  H
  C9       1.0000 0.44454  0.54803  0.34941  Biso   1.000  C
  C10      1.0000 0.63440  0.58396  0.34360  Biso   1.000  C
  C11      1.0000 0.82087  0.60898  0.33519  Biso   1.000  C
  N2       1.0000 0.83924  0.31503  0.51491  Biso   1.000  N
  H6       1.0000 0.95928  0.43877  0.51880  Biso   1.000  H
  H7       1.0000 0.90250  0.43116  0.55521  Biso   1.000  H
  N3       1.0000 0.36952  0.53401  0.36859  Biso   1.000  N
  H8       1.0000 0.42722  0.55527  0.32360  Biso   1.000  H
  H9       1.0000 0.61629  0.60440  0.31839  Biso   1.000  H
  N4       1.0000 0.80269  0.62704  0.30061  Biso   1.000  N
  H10      1.0000 0.89212  0.60889  0.34639  Biso   1.000  H
  C12      1.0000 0.89678  0.24702  0.49680  Biso   1.000  C
  C13      1.0000 0.26429  0.52796  0.34919  Biso   1.000  C
  C14      1.0000 0.90197  0.63896  0.28431  Biso   1.000  C
  C15      1.0000 0.86482  0.12301  0.48400  Biso   1.000  C
  H11      1.0000 0.96236  0.27819  0.49159  Biso   1.000  H
  C16      1.0000 0.20700  0.42603  0.36840  Biso   1.000  C
  H12      1.0000 0.26607  0.50788  0.32310  Biso   1.000  H
  H13      1.0000 0.22769  0.60770  0.35070  Biso   1.000  H
  C17      1.0000 0.90397  0.53300  0.25589  Biso   1.000  C
  H14      1.0000 0.96302  0.63291  0.30351  Biso   1.000  H
  H15      1.0000 0.90426  0.71952  0.27189  Biso   1.000  H
  C18      1.0000 0.77656  0.07204  0.49699  Biso   1.000  C
  C19      1.0000 0.92654  0.05298  0.46161  Biso   1.000  C
  N5       1.0000 0.25298  0.31201  0.35651  Biso   1.000  N
  H16      1.0000 0.22078  0.43428  0.39539  Biso   1.000  H
  H17      1.0000 0.13046  0.42814  0.36059  Biso   1.000  H
  N6       1.0000 0.91401  0.41100  0.27310  Biso   1.000  N
  H18      1.0000 0.83852  0.53547  0.23830  Biso   1.000  H
  H19      1.0000 0.96403  0.54601  0.24181  Biso   1.000  H
  C20      1.0000 0.74172  0.95500  0.48611  Biso   1.000  C
  H20      1.0000 0.74032  0.11797  0.51340  Biso   1.000  H
  C21      1.0000 0.88837  0.93401  0.45309  Biso   1.000  C
  H21      1.0000 0.98810  0.08488  0.45320  Biso   1.000  H
  C22      1.0000 0.29303  0.23602  0.38029  Biso   1.000  C
  C23      1.0000 0.84302  0.33501  0.25970  Biso   1.000  C
  C24      1.0000 0.64492  0.90504  0.49819  Biso   1.000  C
  C25      1.0000 0.79723  0.88396  0.46381  Biso   1.000  C
  C26      1.0000 0.95420  0.85802  0.43229  Biso   1.000  C
  C27      1.0000 0.34096  0.11797  0.37070  Biso   1.000  C
  H22      1.0000 0.29260  0.25454  0.40539  Biso   1.000  H
  C28      1.0000 0.84703  0.20797  0.27499  Biso   1.000  C
  H23      1.0000 0.78931  0.35820  0.24071  Biso   1.000  H
  N7       1.0000 0.62097  0.79203  0.49510  Biso   1.000  N
  H24      1.0000 0.59889  0.95930  0.50869  Biso   1.000  H
  H25      1.0000 0.77381  0.80458  0.45611  Biso   1.000  H
  H26      1.0000 0.92950  0.77892  0.42429  Biso   1.000  H
  N8       1.0000 0.04363  0.89423  0.42451  Biso   1.000  N
  C29      1.0000 0.34900  0.09303  0.33401  Biso   1.000  C
  C30      1.0000 0.37497  0.03996  0.39980  Biso   1.000  C
  C31      1.0000 0.77201  0.12401  0.26019  Biso   1.000  C
  C32      1.0000 0.93002  0.18103  0.30190  Biso   1.000  C
  C33      1.0000 0.51669  0.76004  0.50430  Biso   1.000  C
  C34      1.0000 0.10274  0.81100  0.40391  Biso   1.000  C
  H27      1.0000 0.32354  0.14931  0.31521  Biso   1.000  H
  C35      1.0000 0.39702  0.98304  0.32549  Biso   1.000  C
  H28      1.0000 0.37314  0.06214  0.42470  Biso   1.000  H
  C36      1.0000 0.41304  0.92301  0.38930  Biso   1.000  C
  C37      1.0000 0.77468  0.00697  0.27650  Biso   1.000  C
  H29      1.0000 0.72100  0.14372  0.23989  Biso   1.000  H
  C38      1.0000 0.93403  0.05802  0.31530  Biso   1.000  C
  H30      1.0000 0.98098  0.24115  0.31080  Biso   1.000  H
  C39      1.0000 0.43601  0.72301  0.47170  Biso   1.000  C
  H31      1.0000 0.48867  0.83171  0.51661  Biso   1.000  H
  H32      1.0000 0.52453  0.69203  0.52211  Biso   1.000  H
  C40      1.0000 0.14201  0.87901  0.37141  Biso   1.000  C
  H33      1.0000 0.05717  0.74180  0.39459  Biso   1.000  H
  H34      1.0000 0.16360  0.77791  0.42029  Biso   1.000  H
  C41      1.0000 0.42902  0.89899  0.35319  Biso   1.000  C
  C42      1.0000 0.40603  0.96004  0.28661  Biso   1.000  C
  C43      1.0000 0.44503  0.82997  0.41761  Biso   1.000  C
  C44      1.0000 0.69632  0.91797  0.26151  Biso   1.000  C
  C45      1.0000 0.85828  0.97204  0.30209  Biso   1.000  C
  C46      1.0000 0.02179  0.01402  0.34160  Biso   1.000  C
  N9       1.0000 0.41627  0.83401  0.44961  Biso   1.000  N
  H35      1.0000 0.46419  0.65710  0.45731  Biso   1.000  H
  H36      1.0000 0.37007  0.69368  0.48030  Biso   1.000  H
  N10      1.0000 0.04886  0.90000  0.34489  Biso   1.000  N
  H37      1.0000 0.17568  0.95784  0.37960  Biso   1.000  H
  H38      1.0000 0.19413  0.82832  0.36051  Biso   1.000  H
  H39      1.0000 0.46287  0.82484  0.34749  Biso   1.000  H
  H40      1.0000 0.38768  0.02383  0.26951  Biso   1.000  H
  N11      1.0000 0.43709  0.85802  0.27450  Biso   1.000  N
  H41      1.0000 0.48840  0.76416  0.41191  Biso   1.000  H
  N12      1.0000 0.61738  0.93410  0.23751  Biso   1.000  N
  H42      1.0000 0.70581  0.83694  0.27080  Biso   1.000  H
  H43      1.0000 0.86400  0.88983  0.31050  Biso   1.000  H
  H44      1.0000 0.06089  0.07186  0.35700  Biso   1.000  H
  C47      1.0000 0.43100  0.84803  0.23449  Biso   1.000  C
  C48      1.0000 0.54799  0.82896  0.22920  Biso   1.000  C
  H45      1.0000 0.40188  0.92346  0.22219  Biso   1.000  H
  H46      1.0000 0.38748  0.77690  0.22501  Biso   1.000  H
  H47      1.0000 0.57667  0.76013  0.24490  Biso   1.000  H
  H48      1.0000 0.55140  0.80513  0.20350  Biso   1.000  H
  C49      1.0000 0.28692  0.47397  0.54340  Biso   1.000  C
  N13      1.0000 0.19772  0.45005  0.52639  Biso   1.000  N
  C50      1.0000 0.31427  0.46104  0.58330  Biso   1.000  C
  H49      1.0000 0.34021  0.50110  0.52959  Biso   1.000  H
  C51      1.0000 0.18499  0.46700  0.48679  Biso   1.000  C
  C52      1.0000 0.41854  0.47104  0.59801  Biso   1.000  C
  C53      1.0000 0.23032  0.43300  0.60259  Biso   1.000  C
  C54      1.0000 0.10900  0.57003  0.47189  Biso   1.000  C
  H50      1.0000 0.25541  0.48350  0.47929  Biso   1.000  H
  H51      1.0000 0.15974  0.38873  0.47501  Biso   1.000  H
  C55      1.0000 0.44449  0.44803  0.63541  Biso   1.000  C
  H52      1.0000 0.47091  0.49340  0.58319  Biso   1.000  H
  C56      1.0000 0.26192  0.41402  0.64111  Biso   1.000  C
  H53      1.0000 0.15939  0.42686  0.59141  Biso   1.000  H
  N14      1.0000 0.16078  0.68497  0.48510  Biso   1.000  N
  H54      1.0000 0.04067  0.56123  0.48120  Biso   1.000  H
  H55      1.0000 0.09752  0.56884  0.44479  Biso   1.000  H
  C57      1.0000 0.36562  0.41604  0.65640  Biso   1.000  C
  C58      1.0000 0.55548  0.45197  0.65059  Biso   1.000  C
  C59      1.0000 0.17907  0.39102  0.66479  Biso   1.000  C
  C60      1.0000 0.10316  0.75298  0.50321  Biso   1.000  C
  H56      1.0000 0.38373  0.39560  0.68161  Biso   1.000  H
  N15      1.0000 0.63050  0.46599  0.63141  Biso   1.000  N
  H57      1.0000 0.57280  0.44473  0.67640  Biso   1.000  H
  N16      1.0000 0.19726  0.37296  0.69939  Biso   1.000  N
  H58      1.0000 0.10790  0.39111  0.65361  Biso   1.000  H
  C61      1.0000 0.13520  0.87699  0.51600  Biso   1.000  C
  H59      1.0000 0.03759  0.72181  0.50841  Biso   1.000  H
  C62      1.0000 0.73574  0.47204  0.65081  Biso   1.000  C
  C63      1.0000 0.09798  0.36104  0.71570  Biso   1.000  C
  C64      1.0000 0.07349  0.94702  0.53839  Biso   1.000  C
  C65      1.0000 0.22338  0.92796  0.50299  Biso   1.000  C
  C66      1.0000 0.79302  0.57397  0.63160  Biso   1.000  C
  H60      1.0000 0.73388  0.49212  0.67690  Biso   1.000  H
  H61      1.0000 0.77233  0.39230  0.64931  Biso   1.000  H
  C67      1.0000 0.09598  0.46700  0.74411  Biso   1.000  C
  H62      1.0000 0.03700  0.36709  0.69649  Biso   1.000  H
  H63      1.0000 0.09568  0.28048  0.72811  Biso   1.000  H
  H64      1.0000 0.01192  0.91512  0.54680  Biso   1.000  H
  C68      1.0000 0.11157  0.06599  0.54691  Biso   1.000  C
  H65      1.0000 0.25971  0.88203  0.48660  Biso   1.000  H
  C69      1.0000 0.25830  0.04500  0.51389  Biso   1.000  C
  N17      1.0000 0.74697  0.68799  0.64350  Biso   1.000  N
  H66      1.0000 0.77923  0.56572  0.60459  Biso   1.000  H
  H67      1.0000 0.86947  0.57186  0.63939  Biso   1.000  H
  N18      1.0000 0.08602  0.58900  0.72690  Biso   1.000  N
  H68      1.0000 0.16150  0.46453  0.76170  Biso   1.000  H
  H69      1.0000 0.03599  0.45399  0.75819  Biso   1.000  H
  C70      1.0000 0.20280  0.11604  0.53620  Biso   1.000  C
  C71      1.0000 0.04583  0.14198  0.56771  Biso   1.000  C
  C72      1.0000 0.35510  0.09496  0.50181  Biso   1.000  C
  C73      1.0000 0.70699  0.76398  0.61971  Biso   1.000  C
  C74      1.0000 0.15700  0.66499  0.74030  Biso   1.000  C
  H70      1.0000 0.22621  0.19542  0.54390  Biso   1.000  H
  N19      1.0000 0.95639  0.10577  0.57549  Biso   1.000  N
  H71      1.0000 0.07052  0.22108  0.57571  Biso   1.000  H
  N20      1.0000 0.37898  0.20797  0.50491  Biso   1.000  N
  H72      1.0000 0.40112  0.04070  0.49129  Biso   1.000  H
  C75      1.0000 0.65898  0.88203  0.62930  Biso   1.000  C
  H73      1.0000 0.70742  0.74546  0.59459  Biso   1.000  H
  C76      1.0000 0.15299  0.79203  0.72501  Biso   1.000  C
  H74      1.0000 0.21072  0.64180  0.75929  Biso   1.000  H
  C77      1.0000 0.89729  0.18900  0.59609  Biso   1.000  C
  C78      1.0000 0.48333  0.23996  0.49570  Biso   1.000  C
  C79      1.0000 0.65102  0.90697  0.66599  Biso   1.000  C
  C80      1.0000 0.62498  0.96004  0.60020  Biso   1.000  C
  C81      1.0000 0.22801  0.87599  0.73981  Biso   1.000  C
  C82      1.0000 0.07000  0.81897  0.69811  Biso   1.000  C
  C83      1.0000 0.85801  0.12099  0.62859  Biso   1.000  C
  H75      1.0000 0.94277  0.25820  0.60541  Biso   1.000  H
  H76      1.0000 0.83643  0.22209  0.57971  Biso   1.000  H
  C84      1.0000 0.56401  0.27699  0.52831  Biso   1.000  C
  H77      1.0000 0.51128  0.16829  0.48340  Biso   1.000  H
  H78      1.0000 0.47549  0.30797  0.47789  Biso   1.000  H
  H79      1.0000 0.67649  0.85069  0.68479  Biso   1.000  H
  C85      1.0000 0.60301  0.01696  0.67451  Biso   1.000  C
  C86      1.0000 0.58699  0.07699  0.61070  Biso   1.000  C
  H80      1.0000 0.62689  0.93786  0.57530  Biso   1.000  H
  C87      1.0000 0.22534  0.99303  0.72351  Biso   1.000  C
  H81      1.0000 0.27902  0.85628  0.76011  Biso   1.000  H
  C88      1.0000 0.06600  0.94198  0.68471  Biso   1.000  C
  H82      1.0000 0.01897  0.75885  0.68920  Biso   1.000  H
  N21      1.0000 0.95108  0.10000  0.65509  Biso   1.000  N
  H83      1.0000 0.82427  0.04216  0.62040  Biso   1.000  H
  H84      1.0000 0.80589  0.17168  0.63950  Biso   1.000  H
  N22      1.0000 0.58368  0.16599  0.55039  Biso   1.000  N
  H85      1.0000 0.53583  0.34290  0.54269  Biso   1.000  H
  H86      1.0000 0.62987  0.30632  0.51970  Biso   1.000  H
  C89      1.0000 0.57101  0.10101  0.64681  Biso   1.000  C
  C90      1.0000 0.59400  0.03996  0.71339  Biso   1.000  C
  C91      1.0000 0.55500  0.17003  0.58239  Biso   1.000  C
  C92      1.0000 0.14167  0.02796  0.69791  Biso   1.000  C
  C93      1.0000 0.30371  0.08203  0.73849  Biso   1.000  C
  C94      1.0000 0.97824  0.98598  0.65840  Biso   1.000  C
  H87      1.0000 0.53708  0.17516  0.65251  Biso   1.000  H
  H88      1.0000 0.61227  0.97617  0.73049  Biso   1.000  H
  N23      1.0000 0.56293  0.14198  0.72551  Biso   1.000  N
  H89      1.0000 0.51162  0.23584  0.58809  Biso   1.000  H
  H90      1.0000 0.13602  0.11017  0.68950  Biso   1.000  H
  N24      1.0000 0.38257  0.06590  0.76250  Biso   1.000  N
  H91      1.0000 0.29422  0.16306  0.72920  Biso   1.000  H
  H92      1.0000 0.93914  0.92814  0.64300  Biso   1.000  H
  C95      1.0000 0.56902  0.15197  0.76551  Biso   1.000  C
  C96      1.0000 0.45203  0.17104  0.77080  Biso   1.000  C
  H93      1.0000 0.59814  0.07654  0.77781  Biso   1.000  H
  H94      1.0000 0.61246  0.22310  0.77499  Biso   1.000  H
  H95      1.0000 0.42328  0.23987  0.75510  Biso   1.000  H
  H96      1.0000 0.44862  0.19487  0.79650  Biso   1.000  H
  C97      1.0000 0.45202  0.32896  0.27080  Biso   1.000  C
  N25      1.0000 0.38263  0.43410  0.26250  Biso   1.000  N
  C98      1.0000 0.56901  0.34803  0.26551  Biso   1.000  C
  H97      1.0000 0.42327  0.26013  0.25510  Biso   1.000  H
  H98      1.0000 0.44861  0.30513  0.29650  Biso   1.000  H
  C99      1.0000 0.30370  0.41797  0.23849  Biso   1.000  C
  N26      1.0000 0.56292  0.35802  0.22550  Biso   1.000  N
  H99      1.0000 0.59813  0.42346  0.27781  Biso   1.000  H
  H100     1.0000 0.61253  0.27690  0.27499  Biso   1.000  H
  C100     1.0000 0.22533  0.50697  0.22350  Biso   1.000  C
  H101     1.0000 0.29421  0.33694  0.22920  Biso   1.000  H
  C101     1.0000 0.59398  0.46004  0.21339  Biso   1.000  C
  C102     1.0000 0.22800  0.62401  0.23981  Biso   1.000  C
  C103     1.0000 0.14174  0.47204  0.19791  Biso   1.000  C
  C104     1.0000 0.60299  0.48304  0.17451  Biso   1.000  C
  H102     1.0000 0.61233  0.52383  0.23049  Biso   1.000  H
  C105     1.0000 0.15298  0.70797  0.22501  Biso   1.000  C
  H103     1.0000 0.27901  0.64372  0.26011  Biso   1.000  H
  C106     1.0000 0.06599  0.55802  0.18471  Biso   1.000  C
  H104     1.0000 0.13601  0.38983  0.18950  Biso   1.000  H
  C107     1.0000 0.65101  0.59303  0.16599  Biso   1.000  C
  C108     1.0000 0.57099  0.39899  0.14681  Biso   1.000  C
  C109     1.0000 0.06999  0.68103  0.19810  Biso   1.000  C
  C110     1.0000 0.15699  0.83501  0.24030  Biso   1.000  C
  C111     1.0000 0.97822  0.51402  0.15840  Biso   1.000  C
  C112     1.0000 0.65897  0.61797  0.12930  Biso   1.000  C
  H105     1.0000 0.67648  0.64931  0.18479  Biso   1.000  H
  C113     1.0000 0.58698  0.42301  0.11070  Biso   1.000  C
  H106     1.0000 0.53714  0.32484  0.15251  Biso   1.000  H
  H107     1.0000 0.01903  0.74115  0.18920  Biso   1.000  H
  N27      1.0000 0.08601  0.91100  0.22690  Biso   1.000  N
  H108     1.0000 0.21071  0.85820  0.25929  Biso   1.000  H
  N28      1.0000 0.95108  0.40000  0.15511  Biso   1.000  N
  H109     1.0000 0.93912  0.57186  0.14300  Biso   1.000  H
  C114     1.0000 0.62497  0.53996  0.10020  Biso   1.000  C
  C115     1.0000 0.70698  0.73602  0.11971  Biso   1.000  C
  C116     1.0000 0.55498  0.32997  0.08239  Biso   1.000  C
  C117     1.0000 0.09596  0.03300  0.24411  Biso   1.000  C
  C118     1.0000 0.85800  0.37901  0.12859  Biso   1.000  C
  H110     1.0000 0.62688  0.56214  0.07530  Biso   1.000  H
  N29      1.0000 0.74704  0.81201  0.14350  Biso   1.000  N
  H111     1.0000 0.70741  0.75454  0.09461  Biso   1.000  H
  N30      1.0000 0.58367  0.33401  0.05039  Biso   1.000  N
  H112     1.0000 0.51161  0.26416  0.08809  Biso   1.000  H
  C119     1.0000 0.09797  0.13896  0.21570  Biso   1.000  C
  H113     1.0000 0.16149  0.03547  0.26170  Biso   1.000  H
  H114     1.0000 0.03598  0.04601  0.25819  Biso   1.000  H
  C120     1.0000 0.89727  0.31100  0.09609  Biso   1.000  C
  H115     1.0000 0.82433  0.45784  0.12040  Biso   1.000  H
  H116     1.0000 0.80588  0.32832  0.13950  Biso   1.000  H
  C121     1.0000 0.79301  0.92603  0.13160  Biso   1.000  C
  C122     1.0000 0.56400  0.22301  0.02830  Biso   1.000  C
  N31      1.0000 0.19733  0.12704  0.19939  Biso   1.000  N
  H117     1.0000 0.03699  0.13291  0.19649  Biso   1.000  H
  H118     1.0000 0.09567  0.21952  0.22811  Biso   1.000  H
  N32      1.0000 0.95638  0.39423  0.07549  Biso   1.000  N
  H119     1.0000 0.94284  0.24180  0.10541  Biso   1.000  H
  H120     1.0000 0.83641  0.27791  0.07971  Biso   1.000  H
  H121     1.0000 0.77922  0.93428  0.10459  Biso   1.000  H
  H122     1.0000 0.86947  0.92814  0.13941  Biso   1.000  H
  C123     1.0000 0.73573  0.02796  0.15081  Biso   1.000  C
  H123     1.0000 0.53582  0.15710  0.04269  Biso   1.000  H
  H124     1.0000 0.62986  0.19368  0.01970  Biso   1.000  H
  C124     1.0000 0.48332  0.26004  0.99570  Biso   1.000  C
  C125     1.0000 0.17914  0.10898  0.16481  Biso   1.000  C
  C126     1.0000 0.04581  0.35802  0.06771  Biso   1.000  C
  N33      1.0000 0.63049  0.03401  0.13141  Biso   1.000  N
  H125     1.0000 0.73386  0.00788  0.17690  Biso   1.000  H
  H126     1.0000 0.77232  0.10770  0.14930  Biso   1.000  H
  N34      1.0000 0.37896  0.29203  0.00490  Biso   1.000  N
  H127     1.0000 0.51127  0.33171  0.98340  Biso   1.000  H
  H128     1.0000 0.47548  0.19203  0.97789  Biso   1.000  H
  C127     1.0000 0.26191  0.08598  0.14111  Biso   1.000  C
  H129     1.0000 0.10789  0.10889  0.15361  Biso   1.000  H
  C128     1.0000 0.11164  0.43401  0.04691  Biso   1.000  C
  H130     1.0000 0.07051  0.27892  0.07571  Biso   1.000  H
  C129     1.0000 0.55547  0.04803  0.15059  Biso   1.000  C
  C130     1.0000 0.35509  0.40504  0.00181  Biso   1.000  C
  C131     1.0000 0.23031  0.06700  0.10259  Biso   1.000  C
  C132     1.0000 0.36561  0.08396  0.15640  Biso   1.000  C
  C133     1.0000 0.20279  0.38396  0.03620  Biso   1.000  C
  C134     1.0000 0.07347  0.55298  0.03839  Biso   1.000  C
  C135     1.0000 0.44448  0.05197  0.13541  Biso   1.000  C
  H131     1.0000 0.57279  0.05527  0.17640  Biso   1.000  H
  C136     1.0000 0.25829  0.45500  0.01389  Biso   1.000  C
  H132     1.0000 0.40111  0.45930  0.99129  Biso   1.000  H
  C137     1.0000 0.31426  0.03896  0.08330  Biso   1.000  C
  H133     1.0000 0.15938  0.07314  0.09141  Biso   1.000  H
  H134     1.0000 0.38372  0.10440  0.18161  Biso   1.000  H
  H135     1.0000 0.22620  0.30458  0.04390  Biso   1.000  H
  C138     1.0000 0.13519  0.62301  0.01600  Biso   1.000  C
  H136     1.0000 0.01191  0.58488  0.04680  Biso   1.000  H
  C139     1.0000 0.41852  0.02896  0.09801  Biso   1.000  C
  C140     1.0000 0.22337  0.57204  0.00299  Biso   1.000  C
  C141     1.0000 0.28691  0.02603  0.04340  Biso   1.000  C
  C142     1.0000 0.10323  0.74702  0.00321  Biso   1.000  C
  H137     1.0000 0.47089  0.00660  0.08319  Biso   1.000  H
  H138     1.0000 0.25970  0.61797  0.98660  Biso   1.000  H
  H139     1.0000 0.34020  0.99890  0.02959  Biso   1.000  H
  N35      1.0000 0.19771  0.05005  0.02639  Biso   1.000  N
  H140     1.0000 0.03758  0.77819  0.00841  Biso   1.000  H
  N36      1.0000 0.16077  0.81503  0.98509  Biso   1.000  N
  C143     1.0000 0.18498  0.03300  0.98679  Biso   1.000  C
  C144     1.0000 0.10899  0.92997  0.97189  Biso   1.000  C
  H141     1.0000 0.25540  0.01650  0.97931  Biso   1.000  H
  H142     1.0000 0.15973  0.11127  0.97501  Biso   1.000  H
  H143     1.0000 0.04073  0.93877  0.98120  Biso   1.000  H
  H144     1.0000 0.09751  0.93116  0.94479  Biso   1.000  H
  C145     1.0000 0.54800  0.67104  0.72920  Biso   1.000  C
  N37      1.0000 0.61739  0.56590  0.73751  Biso   1.000  N
  C146     1.0000 0.43102  0.65197  0.73449  Biso   1.000  C
  H145     1.0000 0.57668  0.73987  0.74491  Biso   1.000  H
  H146     1.0000 0.55141  0.69487  0.70350  Biso   1.000  H
  C147     1.0000 0.69633  0.58203  0.76151  Biso   1.000  C
  N38      1.0000 0.43710  0.64198  0.77450  Biso   1.000  N
  H147     1.0000 0.40190  0.57654  0.72219  Biso   1.000  H
  H148     1.0000 0.38750  0.72310  0.72501  Biso   1.000  H
  C148     1.0000 0.77470  0.49303  0.77650  Biso   1.000  C
  H149     1.0000 0.70582  0.66306  0.77080  Biso   1.000  H
  C149     1.0000 0.40604  0.53996  0.78661  Biso   1.000  C
  C150     1.0000 0.77203  0.37599  0.76019  Biso   1.000  C
  C151     1.0000 0.85829  0.52796  0.80209  Biso   1.000  C
  C152     1.0000 0.39703  0.51696  0.82549  Biso   1.000  C
  H150     1.0000 0.38769  0.47617  0.76951  Biso   1.000  H
  C153     1.0000 0.84697  0.29203  0.77499  Biso   1.000  C
  H151     1.0000 0.72102  0.35628  0.73989  Biso   1.000  H
  C154     1.0000 0.93396  0.44198  0.81530  Biso   1.000  C
  H152     1.0000 0.86401  0.61017  0.81050  Biso   1.000  H
  C155     1.0000 0.34901  0.40697  0.83401  Biso   1.000  C
  C156     1.0000 0.42903  0.60101  0.85319  Biso   1.000  C
  C157     1.0000 0.93003  0.31897  0.80190  Biso   1.000  C
  C158     1.0000 0.84303  0.16499  0.75970  Biso   1.000  C
  C159     1.0000 0.02180  0.48598  0.84160  Biso   1.000  C
  C160     1.0000 0.34097  0.38203  0.87070  Biso   1.000  C
  H153     1.0000 0.32346  0.35069  0.81519  Biso   1.000  H
  C161     1.0000 0.41297  0.57699  0.88930  Biso   1.000  C
  H154     1.0000 0.46288  0.67516  0.84749  Biso   1.000  H
  H155     1.0000 0.98099  0.25885  0.81080  Biso   1.000  H
  N39      1.0000 0.91402  0.08900  0.77310  Biso   1.000  N
  H156     1.0000 0.78932  0.14180  0.74071  Biso   1.000  H
  N40      1.0000 0.04887  0.60000  0.84489  Biso   1.000  N
  H157     1.0000 0.06090  0.42814  0.85700  Biso   1.000  H
  C162     1.0000 0.37498  0.46004  0.89980  Biso   1.000  C
  C163     1.0000 0.29297  0.26398  0.88029  Biso   1.000  C
  C164     1.0000 0.44504  0.67003  0.91761  Biso   1.000  C
  C165     1.0000 0.90398  0.96700  0.75589  Biso   1.000  C
  C166     1.0000 0.14202  0.62099  0.87141  Biso   1.000  C
  H158     1.0000 0.37307  0.43786  0.92471  Biso   1.000  H
  N41      1.0000 0.25299  0.18799  0.85651  Biso   1.000  N
  H159     1.0000 0.29261  0.24546  0.90539  Biso   1.000  H
  N42      1.0000 0.41628  0.66599  0.94961  Biso   1.000  N
  H160     1.0000 0.48842  0.73584  0.91191  Biso   1.000  H
  C167     1.0000 0.90198  0.86104  0.78431  Biso   1.000  C
  H161     1.0000 0.83853  0.96453  0.73830  Biso   1.000  H
  H162     1.0000 0.96397  0.95399  0.74181  Biso   1.000  H
  C168     1.0000 0.10267  0.68900  0.90391  Biso   1.000  C
  H163     1.0000 0.17569  0.54216  0.87961  Biso   1.000  H
  H164     1.0000 0.19406  0.67168  0.86051  Biso   1.000  H
  C169     1.0000 0.20701  0.07397  0.86840  Biso   1.000  C
  C170     1.0000 0.43603  0.77699  0.97170  Biso   1.000  C
  N43      1.0000 0.80270  0.87296  0.80061  Biso   1.000  N
  H165     1.0000 0.96303  0.86709  0.80349  Biso   1.000  H
  H166     1.0000 0.90428  0.78048  0.77189  Biso   1.000  H
  N44      1.0000 0.04356  0.60577  0.92449  Biso   1.000  N
  H167     1.0000 0.05718  0.75820  0.89459  Biso   1.000  H
  H168     1.0000 0.16361  0.72209  0.92029  Biso   1.000  H
  H169     1.0000 0.22079  0.06572  0.89539  Biso   1.000  H
  H170     1.0000 0.13047  0.07186  0.86059  Biso   1.000  H
  C171     1.0000 0.26430  0.97204  0.84919  Biso   1.000  C
  H171     1.0000 0.46421  0.84290  0.95731  Biso   1.000  H
  H172     1.0000 0.37008  0.80632  0.98030  Biso   1.000  H
  C172     1.0000 0.51670  0.73996  0.00430  Biso   1.000  C
  C173     1.0000 0.82088  0.89102  0.83519  Biso   1.000  C
  C174     1.0000 0.95421  0.64198  0.93230  Biso   1.000  C
  N45      1.0000 0.36946  0.96599  0.86859  Biso   1.000  N
  H173     1.0000 0.26608  0.99212  0.82311  Biso   1.000  H
  H174     1.0000 0.22771  0.89230  0.85070  Biso   1.000  H
  N46      1.0000 0.62098  0.70797  0.99510  Biso   1.000  N
  H175     1.0000 0.48868  0.66829  0.01661  Biso   1.000  H
  H176     1.0000 0.52453  0.80797  0.02209  Biso   1.000  H
  C175     1.0000 0.73811  0.91402  0.85889  Biso   1.000  C
  H177     1.0000 0.89214  0.89111  0.84640  Biso   1.000  H
  C176     1.0000 0.88839  0.56599  0.95309  Biso   1.000  C
  H178     1.0000 0.92951  0.72108  0.92430  Biso   1.000  H
  C177     1.0000 0.44447  0.95197  0.84941  Biso   1.000  C
  C178     1.0000 0.64494  0.59496  0.99819  Biso   1.000  C
  C179     1.0000 0.76971  0.93300  0.89739  Biso   1.000  C
  C180     1.0000 0.63441  0.91604  0.84360  Biso   1.000  C
  C181     1.0000 0.79724  0.61604  0.96381  Biso   1.000  C
  C182     1.0000 0.92646  0.44702  0.96159  Biso   1.000  C
  C183     1.0000 0.55547  0.94803  0.86459  Biso   1.000  C
  H179     1.0000 0.42723  0.94473  0.82360  Biso   1.000  H
  C184     1.0000 0.74174  0.54500  0.98611  Biso   1.000  C
  H180     1.0000 0.59891  0.54070  0.00869  Biso   1.000  H
  C185     1.0000 0.68569  0.96104  0.91671  Biso   1.000  C
  H181     1.0000 0.84057  0.92686  0.90859  Biso   1.000  H
  H182     1.0000 0.61631  0.89560  0.81839  Biso   1.000  H
  H183     1.0000 0.77382  0.69542  0.95611  Biso   1.000  H
  C186     1.0000 0.86483  0.37699  0.98400  Biso   1.000  C
  H184     1.0000 0.98811  0.41512  0.95320  Biso   1.000  H
  C187     1.0000 0.58150  0.97104  0.90199  Biso   1.000  C
  C188     1.0000 0.77657  0.42796  0.99699  Biso   1.000  C
  C189     1.0000 0.71312  0.97397  0.95660  Biso   1.000  C
  C190     1.0000 0.89679  0.25298  0.99680  Biso   1.000  C
  H185     1.0000 0.52912  0.99340  0.91679  Biso   1.000  H
  H186     1.0000 0.74033  0.38203  0.01340  Biso   1.000  H
  H187     1.0000 0.65982  0.00110  0.97041  Biso   1.000  H
  N47      1.0000 0.80231  0.95005  0.97359  Biso   1.000  N
  H188     1.0000 0.96237  0.22181  0.99159  Biso   1.000  H
  N48      1.0000 0.83918  0.18497  0.01491  Biso   1.000  N
  C191     1.0000 0.81504  0.96700  0.01321  Biso   1.000  C
  C192     1.0000 0.89103  0.07003  0.02809  Biso   1.000  C
  H189     1.0000 0.74462  0.98350  0.02069  Biso   1.000  H
  H190     1.0000 0.84030  0.88873  0.02499  Biso   1.000  H
  H191     1.0000 0.95929  0.06123  0.01880  Biso   1.000  H
  H192     1.0000 0.90251  0.06884  0.05519  Biso   1.000  H
