data_image0
_cell_length_a       19.254
_cell_length_b       24.467
_cell_length_c       15.914
_cell_angle_alpha    90
_cell_angle_beta     109.47
_cell_angle_gamma    90

_symmetry_space_group_name_H-M    "P 1"
_symmetry_int_tables_number       1

loop_
  _symmetry_equiv_pos_as_xyz
  'x, y, z'

loop_
  _atom_site_label
  _atom_site_occupancy
  _atom_site_fract_x
  _atom_site_fract_y
  _atom_site_fract_z
  _atom_site_thermal_displace_type
  _atom_site_B_iso_or_equiv
  _atom_site_type_symbol
  O1       1.0000 0.45302  0.25949  0.39883  Biso   1.000  O
  C1       1.0000 0.40162  0.25079  0.31292  Biso   1.000  C
  C2       1.0000 0.35678  0.20051  0.31192  Biso   1.000  C
  C3       1.0000 0.44128  0.24621  0.24440  Biso   1.000  C
  C4       1.0000 0.30488  0.19099  0.21928  Biso   1.000  C
  O2       1.0000 0.31688  0.20722  0.37237  Biso   1.000  O
  O3       1.0000 0.38921  0.23542  0.15889  Biso   1.000  O
  O4       1.0000 0.49451  0.20460  0.27079  Biso   1.000  O
  C5       1.0000 0.34632  0.18650  0.15329  Biso   1.000  C
  O5       1.0000 0.26530  0.14080  0.21948  Biso   1.000  O
  C6       1.0000 0.57028  0.21850  0.28319  Biso   1.000  C
  C7       1.0000 0.29710  0.18028  0.05812  Biso   1.000  C
  C8       1.0000 0.18718  0.14072  0.18042  Biso   1.000  C
  C9       1.0000 0.61661  0.19819  0.37390  Biso   1.000  C
  C10      1.0000 0.59230  0.19189  0.20948  Biso   1.000  C
  O6       1.0000 0.25112  0.22181  0.02773  Biso   1.000  O
  O7       1.0000 0.32002  0.19169  0.99220  Biso   1.000  O
  C11      1.0000 0.15572  0.11910  0.25020  Biso   1.000  C
  O8       1.0000 0.16559  0.10839  0.10317  Biso   1.000  O
  C12      1.0000 0.69741  0.20571  0.38383  Biso   1.000  C
  O9       1.0000 0.59960  0.22839  0.44148  Biso   1.000  O
  C13      1.0000 0.55369  0.21662  0.11777  Biso   1.000  C
  O10      1.0000 0.66999  0.19720  0.22547  Biso   1.000  O
  O11      1.0000 0.17219  0.19610  0.03759  Biso   1.000  O
  C14      1.0000 0.17642  0.05902  0.26900  Biso   1.000  C
  O12      1.0000 0.17749  0.15151  0.32678  Biso   1.000  O
  C15      1.0000 0.18790  0.05101  0.11610  Biso   1.000  C
  C16      1.0000 0.71398  0.17648  0.30878  Biso   1.000  C
  O13      1.0000 0.74360  0.18740  0.46928  Biso   1.000  O
  O14      1.0000 0.56588  0.27310  0.11450  Biso   1.000  O
  O15      1.0000 0.57812  0.27269  0.12670  Biso   1.000  O
  C17      1.0000 0.15541  0.02640  0.18442  Biso   1.000  C
  O16      1.0000 0.14058  0.03760  0.32611  Biso   1.000  O
  C18      1.0000 0.16361  0.02489  0.03039  Biso   1.000  C
  O17      1.0000 0.70082  0.11992  0.31532  Biso   1.000  O
  O18      1.0000 0.18679  0.97278  0.20728  Biso   1.000  O
  O19      1.0000 0.09181  0.02448  0.98920  Biso   1.000  O
  O20      1.0000 0.17467  0.04390  0.95968  Biso   1.000  O
  C19      1.0000 0.75719  0.08178  0.31312  Biso   1.000  C
  C20      1.0000 0.14019  0.92660  0.18648  Biso   1.000  C
  C21      1.0000 0.77792  0.04929  0.39743  Biso   1.000  C
  C22      1.0000 0.72607  0.04418  0.23147  Biso   1.000  C
  C23      1.0000 0.15849  0.89140  0.26933  Biso   1.000  C
  O21      1.0000 0.15010  0.89660  0.11557  Biso   1.000  O
  C24      1.0000 0.82870  0.00311  0.39530  Biso   1.000  C
  O22      1.0000 0.81090  0.08440  0.47321  Biso   1.000  O
  C25      1.0000 0.71030  0.07369  0.14463  Biso   1.000  C
  O23      1.0000 0.77739  0.00131  0.23507  Biso   1.000  O
  C26      1.0000 0.23671  0.87142  0.29479  Biso   1.000  C
  O24      1.0000 0.14768  0.92112  0.34131  Biso   1.000  O
  C27      1.0000 0.22419  0.87640  0.13283  Biso   1.000  C
  C28      1.0000 0.79610  0.96861  0.31258  Biso   1.000  C
  O25      1.0000 0.84519  0.97049  0.47421  Biso   1.000  O
  O26      1.0000 0.77162  0.10189  0.14323  Biso   1.000  O
  C29      1.0000 0.24738  0.84130  0.21701  Biso   1.000  C
  O27      1.0000 0.25252  0.83508  0.36950  Biso   1.000  O
  C30      1.0000 0.22429  0.84771  0.05192  Biso   1.000  C
  O28      1.0000 0.73193  0.94180  0.31872  Biso   1.000  O
  O29      1.0000 0.32437  0.82822  0.24027  Biso   1.000  O
  O30      1.0000 0.17440  0.80251  0.03259  Biso   1.000  O
  C31      1.0000 0.72732  0.88380  0.30952  Biso   1.000  C
  C32      1.0000 0.34468  0.77431  0.22801  Biso   1.000  C
  C33      1.0000 0.70750  0.86128  0.38783  Biso   1.000  C
  C34      1.0000 0.66828  0.86909  0.22041  Biso   1.000  C
  C35      1.0000 0.39778  0.75391  0.31652  Biso   1.000  C
  O31      1.0000 0.37722  0.77079  0.16042  Biso   1.000  O
  C36      1.0000 0.69197  0.80071  0.37557  Biso   1.000  C
  O32      1.0000 0.76621  0.87068  0.46821  Biso   1.000  O
  C37      1.0000 0.69171  0.88188  0.14050  Biso   1.000  C
  O33      1.0000 0.65411  0.81089  0.21628  Biso   1.000  O
  C38      1.0000 0.46988  0.78551  0.34031  Biso   1.000  C
  O34      1.0000 0.36542  0.75620  0.38343  Biso   1.000  O
  C39      1.0000 0.44481  0.80100  0.17862  Biso   1.000  C
  C40      1.0000 0.63272  0.79000  0.28699  Biso   1.000  C
  O35      1.0000 0.67232  0.77762  0.44622  Biso   1.000  O
  O36      1.0000 0.75631  0.84898  0.14609  Biso   1.000  O
  O37      1.0000 0.62823  0.88748  0.06352  Biso   1.000  O
  C41      1.0000 0.50139  0.78089  0.26540  Biso   1.000  C
  O38      1.0000 0.52141  0.76380  0.42102  Biso   1.000  O
  C42      1.0000 0.46959  0.79499  0.09851  Biso   1.000  C
  O39      1.0000 0.56591  0.81412  0.28752  Biso   1.000  O
  O40      1.0000 0.49267  0.74509  0.08898  Biso   1.000  O
  O41      1.0000 0.41273  0.78211  0.01993  Biso   1.000  O
  O42      1.0000 0.54699  0.25949  0.60117  Biso   1.000  O
  C43      1.0000 0.59840  0.25079  0.68708  Biso   1.000  C
  C44      1.0000 0.55869  0.24621  0.75560  Biso   1.000  C
  C45      1.0000 0.64318  0.20051  0.68808  Biso   1.000  C
  O43      1.0000 0.50550  0.20460  0.72921  Biso   1.000  O
  O44      1.0000 0.61081  0.23542  0.84111  Biso   1.000  O
  C46      1.0000 0.69509  0.19099  0.78073  Biso   1.000  C
  O45      1.0000 0.68307  0.20722  0.62757  Biso   1.000  O
  C47      1.0000 0.42969  0.21850  0.71681  Biso   1.000  C
  C48      1.0000 0.65369  0.18650  0.84671  Biso   1.000  C
  O46      1.0000 0.73471  0.14080  0.78053  Biso   1.000  O
  C49      1.0000 0.38340  0.19819  0.62610  Biso   1.000  C
  C50      1.0000 0.40772  0.19189  0.79052  Biso   1.000  C
  C51      1.0000 0.70287  0.18028  0.94188  Biso   1.000  C
  C52      1.0000 0.81278  0.14072  0.81958  Biso   1.000  C
  C53      1.0000 0.30261  0.20571  0.61617  Biso   1.000  C
  O47      1.0000 0.40041  0.22839  0.55852  Biso   1.000  O
  O48      1.0000 0.33003  0.19720  0.77453  Biso   1.000  O
  C54      1.0000 0.44633  0.21662  0.88223  Biso   1.000  C
  O49      1.0000 0.74890  0.22181  0.97228  Biso   1.000  O
  O50      1.0000 0.68000  0.19169  0.00780  Biso   1.000  O
  C55      1.0000 0.84430  0.11910  0.74980  Biso   1.000  C
  O51      1.0000 0.83443  0.10839  0.89683  Biso   1.000  O
  O52      1.0000 0.25642  0.18740  0.53073  Biso   1.000  O
  C56      1.0000 0.28599  0.17648  0.69122  Biso   1.000  C
  O53      1.0000 0.43409  0.27310  0.88550  Biso   1.000  O
  O54      1.0000 0.42190  0.27269  0.87330  Biso   1.000  O
  O55      1.0000 0.82783  0.19610  0.96241  Biso   1.000  O
  C57      1.0000 0.82360  0.05902  0.73101  Biso   1.000  C
  O56      1.0000 0.82253  0.15151  0.67322  Biso   1.000  O
  C58      1.0000 0.81212  0.05101  0.88390  Biso   1.000  C
  O57      1.0000 0.29920  0.11992  0.68469  Biso   1.000  O
  C59      1.0000 0.84461  0.02640  0.81558  Biso   1.000  C
  O58      1.0000 0.85938  0.03760  0.67389  Biso   1.000  O
  C60      1.0000 0.83641  0.02489  0.96961  Biso   1.000  C
  C61      1.0000 0.24278  0.08178  0.68688  Biso   1.000  C
  O59      1.0000 0.81323  0.97278  0.79272  Biso   1.000  O
  O60      1.0000 0.90821  0.02448  0.01080  Biso   1.000  O
  O61      1.0000 0.82530  0.04390  0.04032  Biso   1.000  O
  C62      1.0000 0.22210  0.04929  0.60257  Biso   1.000  C
  C63      1.0000 0.27389  0.04418  0.76853  Biso   1.000  C
  C64      1.0000 0.85983  0.92660  0.81352  Biso   1.000  C
  C65      1.0000 0.17132  0.00311  0.60471  Biso   1.000  C
  O62      1.0000 0.18912  0.08440  0.52679  Biso   1.000  O
  C66      1.0000 0.28972  0.07369  0.85537  Biso   1.000  C
  O63      1.0000 0.22263  0.00131  0.76493  Biso   1.000  O
  C67      1.0000 0.84147  0.89140  0.73067  Biso   1.000  C
  O64      1.0000 0.84992  0.89660  0.88443  Biso   1.000  O
  C68      1.0000 0.20392  0.96861  0.68742  Biso   1.000  C
  O65      1.0000 0.15477  0.97049  0.52579  Biso   1.000  O
  O66      1.0000 0.22840  0.10189  0.85677  Biso   1.000  O
  C69      1.0000 0.76331  0.87142  0.70521  Biso   1.000  C
  O67      1.0000 0.85229  0.92112  0.65869  Biso   1.000  O
  C70      1.0000 0.77577  0.87640  0.86717  Biso   1.000  C
  O68      1.0000 0.26809  0.94180  0.68129  Biso   1.000  O
  C71      1.0000 0.75258  0.84130  0.78299  Biso   1.000  C
  O69      1.0000 0.74750  0.83508  0.63050  Biso   1.000  O
  C72      1.0000 0.77568  0.84771  0.94808  Biso   1.000  C
  C73      1.0000 0.27270  0.88380  0.69048  Biso   1.000  C
  O70      1.0000 0.67559  0.82822  0.75973  Biso   1.000  O
  O71      1.0000 0.82562  0.80251  0.96741  Biso   1.000  O
  C74      1.0000 0.29247  0.86128  0.61217  Biso   1.000  C
  C75      1.0000 0.33168  0.86909  0.77959  Biso   1.000  C
  C76      1.0000 0.65529  0.77431  0.77200  Biso   1.000  C
  C77      1.0000 0.30798  0.80071  0.62437  Biso   1.000  C
  O72      1.0000 0.23381  0.87068  0.53179  Biso   1.000  O
  C78      1.0000 0.30831  0.88188  0.85951  Biso   1.000  C
  O73      1.0000 0.34591  0.81089  0.78373  Biso   1.000  O
  C79      1.0000 0.60218  0.75391  0.68349  Biso   1.000  C
  O74      1.0000 0.62280  0.77079  0.83958  Biso   1.000  O
  C80      1.0000 0.36730  0.79000  0.71301  Biso   1.000  C
  O75      1.0000 0.32770  0.77762  0.55379  Biso   1.000  O
  O76      1.0000 0.24371  0.84898  0.85391  Biso   1.000  O
  O77      1.0000 0.37179  0.88748  0.93649  Biso   1.000  O
  C81      1.0000 0.53008  0.78551  0.65969  Biso   1.000  C
  O78      1.0000 0.63460  0.75620  0.61657  Biso   1.000  O
  C82      1.0000 0.55520  0.80100  0.82138  Biso   1.000  C
  O79      1.0000 0.43410  0.81412  0.71248  Biso   1.000  O
  C83      1.0000 0.49858  0.78089  0.73461  Biso   1.000  C
  O80      1.0000 0.47861  0.76380  0.57898  Biso   1.000  O
  C84      1.0000 0.53037  0.79499  0.90149  Biso   1.000  C
  O81      1.0000 0.50729  0.74509  0.91103  Biso   1.000  O
  O82      1.0000 0.58729  0.78211  0.98007  Biso   1.000  O
  O83      1.0000 0.64768  0.42110  0.34131  Biso   1.000  O
  C85      1.0000 0.65849  0.39138  0.26933  Biso   1.000  C
  C86      1.0000 0.64019  0.42662  0.18648  Biso   1.000  C
  C87      1.0000 0.73671  0.37140  0.29479  Biso   1.000  C
  O84      1.0000 0.68679  0.47280  0.20728  Biso   1.000  O
  O85      1.0000 0.65010  0.39662  0.11557  Biso   1.000  O
  C88      1.0000 0.74738  0.34132  0.21701  Biso   1.000  C
  O86      1.0000 0.75252  0.33510  0.36950  Biso   1.000  O
  C89      1.0000 0.65541  0.52638  0.18442  Biso   1.000  C
  C90      1.0000 0.72419  0.37638  0.13283  Biso   1.000  C
  O87      1.0000 0.82437  0.32820  0.24027  Biso   1.000  O
  C91      1.0000 0.67642  0.55900  0.26900  Biso   1.000  C
  C92      1.0000 0.68790  0.55099  0.11610  Biso   1.000  C
  C93      1.0000 0.72429  0.34769  0.05192  Biso   1.000  C
  C94      1.0000 0.84468  0.27429  0.22801  Biso   1.000  C
  C95      1.0000 0.65572  0.61912  0.25020  Biso   1.000  C
  O88      1.0000 0.64058  0.53758  0.32611  Biso   1.000  O
  C96      1.0000 0.66361  0.52491  0.03039  Biso   1.000  C
  O89      1.0000 0.66559  0.60841  0.10317  Biso   1.000  O
  O90      1.0000 0.67440  0.30249  0.03259  Biso   1.000  O
  C97      1.0000 0.89778  0.25389  0.31652  Biso   1.000  C
  O91      1.0000 0.87722  0.27081  0.16042  Biso   1.000  O
  C98      1.0000 0.68718  0.64070  0.18042  Biso   1.000  C
  O92      1.0000 0.67749  0.65149  0.32678  Biso   1.000  O
  O93      1.0000 0.59181  0.52450  0.98920  Biso   1.000  O
  O94      1.0000 0.67467  0.54392  0.95968  Biso   1.000  O
  C99      1.0000 0.96988  0.28549  0.34031  Biso   1.000  C
  O95      1.0000 0.86542  0.25618  0.38343  Biso   1.000  O
  C100     1.0000 0.94481  0.30102  0.17862  Biso   1.000  C
  O96      1.0000 0.76530  0.64078  0.21948  Biso   1.000  O
  C101     1.0000 0.00139  0.28091  0.26540  Biso   1.000  C
  O97      1.0000 0.02141  0.26378  0.42102  Biso   1.000  O
  C102     1.0000 0.96959  0.29501  0.09851  Biso   1.000  C
  C103     1.0000 0.80488  0.69101  0.21928  Biso   1.000  C
  O98      1.0000 0.06591  0.31410  0.28752  Biso   1.000  O
  O99      1.0000 0.99267  0.24511  0.08898  Biso   1.000  O
  O100     1.0000 0.91273  0.28209  0.01993  Biso   1.000  O
  C104     1.0000 0.85678  0.70049  0.31192  Biso   1.000  C
  C105     1.0000 0.84632  0.68652  0.15329  Biso   1.000  C
  C106     1.0000 0.13272  0.28998  0.28699  Biso   1.000  C
  C107     1.0000 0.90162  0.75081  0.31292  Biso   1.000  C
  O101     1.0000 0.81688  0.70720  0.37237  Biso   1.000  O
  C108     1.0000 0.79710  0.68030  0.05812  Biso   1.000  C
  O102     1.0000 0.88921  0.73540  0.15889  Biso   1.000  O
  C109     1.0000 0.19197  0.30069  0.37557  Biso   1.000  C
  O103     1.0000 0.15411  0.31091  0.21628  Biso   1.000  O
  C110     1.0000 0.94128  0.74619  0.24440  Biso   1.000  C
  O104     1.0000 0.95302  0.75951  0.39883  Biso   1.000  O
  O105     1.0000 0.75112  0.72179  0.02773  Biso   1.000  O
  O106     1.0000 0.82002  0.69171  0.99220  Biso   1.000  O
  C111     1.0000 0.20750  0.36130  0.38783  Biso   1.000  C
  O107     1.0000 0.17232  0.27760  0.44622  Biso   1.000  O
  C112     1.0000 0.16828  0.36911  0.22041  Biso   1.000  C
  O108     1.0000 0.99451  0.70458  0.27079  Biso   1.000  O
  O109     1.0000 0.67219  0.69608  0.03759  Biso   1.000  O
  C113     1.0000 0.22732  0.38378  0.30952  Biso   1.000  C
  O110     1.0000 0.26621  0.37070  0.46821  Biso   1.000  O
  C114     1.0000 0.19171  0.38190  0.14050  Biso   1.000  C
  C115     1.0000 0.07028  0.71852  0.28319  Biso   1.000  C
  O111     1.0000 0.23193  0.44182  0.31872  Biso   1.000  O
  O112     1.0000 0.25631  0.34900  0.14609  Biso   1.000  O
  O113     1.0000 0.12823  0.38750  0.06352  Biso   1.000  O
  C116     1.0000 0.11661  0.69821  0.37390  Biso   1.000  C
  C117     1.0000 0.09230  0.69191  0.20948  Biso   1.000  C
  C118     1.0000 0.29610  0.46859  0.31258  Biso   1.000  C
  C119     1.0000 0.19741  0.70569  0.38383  Biso   1.000  C
  O114     1.0000 0.09960  0.72841  0.44148  Biso   1.000  O
  C120     1.0000 0.05369  0.71660  0.11777  Biso   1.000  C
  O115     1.0000 0.16999  0.69718  0.22547  Biso   1.000  O
  C121     1.0000 0.32870  0.50309  0.39530  Biso   1.000  C
  O116     1.0000 0.27739  0.50129  0.23507  Biso   1.000  O
  C122     1.0000 0.21398  0.67650  0.30878  Biso   1.000  C
  O117     1.0000 0.24360  0.68742  0.46928  Biso   1.000  O
  O118     1.0000 0.06588  0.77308  0.11450  Biso   1.000  O
  O119     1.0000 0.07812  0.77271  0.12670  Biso   1.000  O
  C123     1.0000 0.27792  0.54931  0.39743  Biso   1.000  C
  O120     1.0000 0.34519  0.47051  0.47421  Biso   1.000  O
  C124     1.0000 0.22607  0.54420  0.23147  Biso   1.000  C
  O121     1.0000 0.20082  0.61990  0.31532  Biso   1.000  O
  C125     1.0000 0.25719  0.58180  0.31312  Biso   1.000  C
  O122     1.0000 0.31090  0.58442  0.47321  Biso   1.000  O
  C126     1.0000 0.21030  0.57371  0.14463  Biso   1.000  C
  O123     1.0000 0.27162  0.60191  0.14323  Biso   1.000  O
  O124     1.0000 0.35229  0.42110  0.65869  Biso   1.000  O
  C127     1.0000 0.34147  0.39138  0.73067  Biso   1.000  C
  C128     1.0000 0.26331  0.37140  0.70521  Biso   1.000  C
  C129     1.0000 0.35983  0.42662  0.81352  Biso   1.000  C
  O125     1.0000 0.24750  0.33510  0.63050  Biso   1.000  O
  C130     1.0000 0.25258  0.34132  0.78299  Biso   1.000  C
  O126     1.0000 0.31323  0.47280  0.79272  Biso   1.000  O
  O127     1.0000 0.34992  0.39662  0.88443  Biso   1.000  O
  C131     1.0000 0.27577  0.37638  0.86717  Biso   1.000  C
  O128     1.0000 0.17559  0.32820  0.75973  Biso   1.000  O
  C132     1.0000 0.34461  0.52638  0.81558  Biso   1.000  C
  C133     1.0000 0.27568  0.34769  0.94808  Biso   1.000  C
  C134     1.0000 0.15529  0.27429  0.77200  Biso   1.000  C
  C135     1.0000 0.32360  0.55900  0.73101  Biso   1.000  C
  C136     1.0000 0.31212  0.55099  0.88390  Biso   1.000  C
  O129     1.0000 0.32562  0.30249  0.96741  Biso   1.000  O
  C137     1.0000 0.10218  0.25389  0.68349  Biso   1.000  C
  O130     1.0000 0.12280  0.27081  0.83958  Biso   1.000  O
  C138     1.0000 0.34430  0.61912  0.74980  Biso   1.000  C
  O131     1.0000 0.35938  0.53758  0.67389  Biso   1.000  O
  C139     1.0000 0.33641  0.52491  0.96961  Biso   1.000  C
  O132     1.0000 0.33443  0.60841  0.89683  Biso   1.000  O
  C140     1.0000 0.03008  0.28549  0.65969  Biso   1.000  C
  O133     1.0000 0.13460  0.25618  0.61657  Biso   1.000  O
  C141     1.0000 0.05520  0.30102  0.82138  Biso   1.000  C
  C142     1.0000 0.31278  0.64070  0.81958  Biso   1.000  C
  O134     1.0000 0.32253  0.65149  0.67322  Biso   1.000  O
  O135     1.0000 0.40821  0.52450  0.01080  Biso   1.000  O
  O136     1.0000 0.32530  0.54392  0.04032  Biso   1.000  O
  C143     1.0000 0.99858  0.28091  0.73461  Biso   1.000  C
  O137     1.0000 0.97861  0.26378  0.57898  Biso   1.000  O
  C144     1.0000 0.03037  0.29501  0.90149  Biso   1.000  C
  O138     1.0000 0.23471  0.64078  0.78053  Biso   1.000  O
  O139     1.0000 0.93410  0.31410  0.71248  Biso   1.000  O
  O140     1.0000 0.00729  0.24511  0.91103  Biso   1.000  O
  O141     1.0000 0.08729  0.28209  0.98007  Biso   1.000  O
  C145     1.0000 0.19509  0.69101  0.78073  Biso   1.000  C
  C146     1.0000 0.86730  0.28998  0.71301  Biso   1.000  C
  C147     1.0000 0.14318  0.70049  0.68808  Biso   1.000  C
  C148     1.0000 0.15369  0.68652  0.84671  Biso   1.000  C
  C149     1.0000 0.80798  0.30069  0.62437  Biso   1.000  C
  O142     1.0000 0.84591  0.31091  0.78373  Biso   1.000  O
  C150     1.0000 0.09840  0.75081  0.68708  Biso   1.000  C
  O143     1.0000 0.18307  0.70720  0.62757  Biso   1.000  O
  C151     1.0000 0.20287  0.68030  0.94188  Biso   1.000  C
  O144     1.0000 0.11081  0.73540  0.84111  Biso   1.000  O
  C152     1.0000 0.79247  0.36130  0.61217  Biso   1.000  C
  O145     1.0000 0.82770  0.27760  0.55379  Biso   1.000  O
  C153     1.0000 0.83168  0.36911  0.77959  Biso   1.000  C
  C154     1.0000 0.05869  0.74619  0.75560  Biso   1.000  C
  O146     1.0000 0.04699  0.75951  0.60117  Biso   1.000  O
  O147     1.0000 0.24890  0.72179  0.97228  Biso   1.000  O
  O148     1.0000 0.18000  0.69171  0.00780  Biso   1.000  O
  C155     1.0000 0.77270  0.38378  0.69048  Biso   1.000  C
  O149     1.0000 0.73381  0.37070  0.53179  Biso   1.000  O
  C156     1.0000 0.80831  0.38190  0.85951  Biso   1.000  C
  O150     1.0000 0.00550  0.70458  0.72921  Biso   1.000  O
  O151     1.0000 0.32783  0.69608  0.96241  Biso   1.000  O
  O152     1.0000 0.76809  0.44182  0.68129  Biso   1.000  O
  O153     1.0000 0.74371  0.34900  0.85391  Biso   1.000  O
  O154     1.0000 0.87179  0.38750  0.93649  Biso   1.000  O
  C157     1.0000 0.92969  0.71852  0.71681  Biso   1.000  C
  C158     1.0000 0.70392  0.46859  0.68742  Biso   1.000  C
  C159     1.0000 0.88340  0.69821  0.62610  Biso   1.000  C
  C160     1.0000 0.90772  0.69191  0.79052  Biso   1.000  C
  C161     1.0000 0.67132  0.50309  0.60471  Biso   1.000  C
  O155     1.0000 0.72263  0.50129  0.76493  Biso   1.000  O
  C162     1.0000 0.80261  0.70569  0.61617  Biso   1.000  C
  O156     1.0000 0.90041  0.72841  0.55852  Biso   1.000  O
  C163     1.0000 0.94633  0.71660  0.88223  Biso   1.000  C
  O157     1.0000 0.83003  0.69718  0.77453  Biso   1.000  O
  C164     1.0000 0.72210  0.54931  0.60257  Biso   1.000  C
  O158     1.0000 0.65477  0.47051  0.52579  Biso   1.000  O
  C165     1.0000 0.77389  0.54420  0.76853  Biso   1.000  C
  C166     1.0000 0.78599  0.67650  0.69122  Biso   1.000  C
  O159     1.0000 0.75642  0.68742  0.53073  Biso   1.000  O
  O160     1.0000 0.93409  0.77308  0.88550  Biso   1.000  O
  O161     1.0000 0.92190  0.77271  0.87330  Biso   1.000  O
  C167     1.0000 0.74278  0.58180  0.68688  Biso   1.000  C
  O162     1.0000 0.68912  0.58442  0.52679  Biso   1.000  O
  C168     1.0000 0.78972  0.57371  0.85537  Biso   1.000  C
  O163     1.0000 0.79920  0.61990  0.68469  Biso   1.000  O
  O164     1.0000 0.72840  0.60191  0.85677  Biso   1.000  O
