data_image0
_cell_length_a       7.909
_cell_length_b       13.505
_cell_length_c       24.706
_cell_angle_alpha    90
_cell_angle_beta     90.76
_cell_angle_gamma    90

_symmetry_space_group_name_H-M    "P 1"
_symmetry_int_tables_number       1

loop_
  _symmetry_equiv_pos_as_xyz
  'x, y, z'

loop_
  _atom_site_label
  _atom_site_occupancy
  _atom_site_fract_x
  _atom_site_fract_y
  _atom_site_fract_z
  _atom_site_thermal_displace_type
  _atom_site_B_iso_or_equiv
  _atom_site_type_symbol
  O1       1.0000 0.52471  0.38526  0.46669  Biso   1.000  O
  C1       1.0000 0.46674  0.33832  0.41941  Biso   1.000  C
  C2       1.0000 0.28684  0.30559  0.42289  Biso   1.000  C
  O2       1.0000 0.27873  0.22903  0.46232  Biso   1.000  O
  C3       1.0000 0.15961  0.38638  0.43439  Biso   1.000  C
  C4       1.0000 0.11730  0.18349  0.46608  Biso   1.000  C
  C5       1.0000 0.98369  0.34639  0.44560  Biso   1.000  C
  O3       1.0000 0.13924  0.44739  0.38828  Biso   1.000  O
  O4       1.0000 0.06235  0.14861  0.41528  Biso   1.000  O
  C6       1.0000 0.98646  0.25961  0.48499  Biso   1.000  C
  O5       1.0000 0.87954  0.42510  0.46458  Biso   1.000  O
  C7       1.0000 0.20471  0.54380  0.38759  Biso   1.000  C
  C8       1.0000 0.06514  0.04621  0.40342  Biso   1.000  C
  O6       1.0000 0.82532  0.21192  0.48669  Biso   1.000  O
  C9       1.0000 0.06954  0.61051  0.36318  Biso   1.000  C
  O7       1.0000 0.35437  0.54787  0.35622  Biso   1.000  O
  C10      1.0000 0.88704  0.01807  0.38630  Biso   1.000  C
  C11      1.0000 0.19272  0.02762  0.35772  Biso   1.000  C
  C12      1.0000 0.03586  0.58541  0.30408  Biso   1.000  C
  O8       1.0000 0.92144  0.60400  0.39581  Biso   1.000  O
  C13      1.0000 0.33269  0.51707  0.29991  Biso   1.000  C
  C14      1.0000 0.88074  0.91440  0.36241  Biso   1.000  C
  O9       1.0000 0.77571  0.02429  0.43058  Biso   1.000  O
  O10      1.0000 0.17711  0.92521  0.34100  Biso   1.000  O
  C15      1.0000 0.37516  0.04672  0.37261  Biso   1.000  C
  C16      1.0000 0.19969  0.58260  0.27271  Biso   1.000  C
  O11      1.0000 0.92486  0.65539  0.27979  Biso   1.000  O
  C17      1.0000 0.50080  0.51847  0.27708  Biso   1.000  C
  C18      1.0000 0.01525  0.90204  0.31918  Biso   1.000  C
  O12      1.0000 0.71616  0.89478  0.33910  Biso   1.000  O
  O13      1.0000 0.42483  0.99008  0.41791  Biso   1.000  O
  O14      1.0000 0.16024  0.54572  0.22069  Biso   1.000  O
  O15      1.0000 0.57606  0.61488  0.27781  Biso   1.000  O
  O16      1.0000 0.97512  0.96498  0.27538  Biso   1.000  O
  C19      1.0000 0.21478  0.59807  0.17601  Biso   1.000  C
  C20      1.0000 0.98201  0.92662  0.22199  Biso   1.000  C
  C21      1.0000 0.06609  0.61392  0.13642  Biso   1.000  C
  O17      1.0000 0.34538  0.54720  0.14840  Biso   1.000  O
  C22      1.0000 0.12346  0.97438  0.19062  Biso   1.000  C
  C23      1.0000 0.81276  0.94950  0.19572  Biso   1.000  C
  C24      1.0000 0.00415  0.51203  0.11549  Biso   1.000  C
  O18      1.0000 0.93694  0.66923  0.16248  Biso   1.000  O
  C25      1.0000 0.30214  0.44820  0.13018  Biso   1.000  C
  C26      1.0000 0.29544  0.95039  0.21252  Biso   1.000  C
  O19      1.0000 0.11143  0.93839  0.13520  Biso   1.000  O
  C27      1.0000 0.80863  0.92218  0.13561  Biso   1.000  C
  O20      1.0000 0.68128  0.90004  0.22349  Biso   1.000  O
  C28      1.0000 0.15150  0.45302  0.09209  Biso   1.000  C
  O21      1.0000 0.87517  0.52662  0.07549  Biso   1.000  O
  C29      1.0000 0.46107  0.40541  0.10569  Biso   1.000  C
  O22      1.0000 0.39932  0.03029  0.19608  Biso   1.000  O
  O23      1.0000 0.32665  0.84532  0.20892  Biso   1.000  O
  C30      1.0000 0.96060  0.96468  0.10792  Biso   1.000  C
  O24      1.0000 0.65596  0.95298  0.10990  Biso   1.000  O
  O25      1.0000 0.08616  0.35853  0.08059  Biso   1.000  O
  O26      1.0000 0.49459  0.45183  0.05720  Biso   1.000  O
  O27      1.0000 0.94317  0.06938  0.10229  Biso   1.000  O
  C31      1.0000 0.11997  0.31633  0.03000  Biso   1.000  C
  C32      1.0000 0.01386  0.11788  0.05679  Biso   1.000  C
  O28      1.0000 0.23696  0.23717  0.03388  Biso   1.000  O
  C33      1.0000 0.95385  0.27790  0.00599  Biso   1.000  C
  C34      1.0000 0.19019  0.15979  0.07072  Biso   1.000  C
  C35      1.0000 0.88345  0.19496  0.04032  Biso   1.000  C
  O29      1.0000 0.83931  0.35802  0.00028  Biso   1.000  O
  C36      1.0000 0.33251  0.08782  0.06651  Biso   1.000  C
  O30      1.0000 0.74357  0.15120  0.01190  Biso   1.000  O
  O31      1.0000 0.48384  0.12573  0.09071  Biso   1.000  O
  O32      1.0000 0.57526  0.49011  0.58210  Biso   1.000  O
  C37      1.0000 0.62481  0.54669  0.62739  Biso   1.000  C
  C38      1.0000 0.80724  0.52758  0.64229  Biso   1.000  C
  C39      1.0000 0.93495  0.54617  0.59659  Biso   1.000  C
  O33      1.0000 0.82285  0.42518  0.65901  Biso   1.000  O
  O34      1.0000 0.93774  0.64857  0.58469  Biso   1.000  O
  C40      1.0000 0.11292  0.51810  0.61371  Biso   1.000  C
  C41      1.0000 0.98484  0.40200  0.68079  Biso   1.000  C
  C42      1.0000 0.88266  0.68352  0.53388  Biso   1.000  C
  C43      1.0000 0.11935  0.41437  0.63759  Biso   1.000  C
  O35      1.0000 0.22425  0.52432  0.56939  Biso   1.000  O
  O36      1.0000 0.02484  0.46501  0.72458  Biso   1.000  O
  O37      1.0000 0.72136  0.72899  0.53769  Biso   1.000  O
  C44      1.0000 0.01350  0.75957  0.51498  Biso   1.000  C
  O38      1.0000 0.28380  0.39482  0.66091  Biso   1.000  O
  C45      1.0000 0.01795  0.42658  0.77802  Biso   1.000  C
  C46      1.0000 0.71325  0.80563  0.57712  Biso   1.000  C
  C47      1.0000 0.01627  0.84643  0.55441  Biso   1.000  C
  O39      1.0000 0.17464  0.71188  0.51328  Biso   1.000  O
  C48      1.0000 0.87650  0.47442  0.80939  Biso   1.000  C
  C49      1.0000 0.18720  0.44946  0.80429  Biso   1.000  C
  C50      1.0000 0.84035  0.88641  0.56558  Biso   1.000  C
  C51      1.0000 0.53322  0.83828  0.58060  Biso   1.000  C
  O40      1.0000 0.12055  0.92506  0.53538  Biso   1.000  O
  C52      1.0000 0.70452  0.45043  0.78749  Biso   1.000  C
  O41      1.0000 0.88866  0.43843  0.86481  Biso   1.000  O
  C53      1.0000 0.19146  0.42221  0.86440  Biso   1.000  C
  O42      1.0000 0.31868  0.40000  0.77652  Biso   1.000  O
  O43      1.0000 0.86072  0.94743  0.61169  Biso   1.000  O
  O44      1.0000 0.47525  0.88530  0.53332  Biso   1.000  O
  O45      1.0000 0.67331  0.34528  0.79109  Biso   1.000  O
  O46      1.0000 0.60064  0.53032  0.80388  Biso   1.000  O
  C54      1.0000 0.03937  0.46472  0.89209  Biso   1.000  C
  O47      1.0000 0.34400  0.45302  0.89011  Biso   1.000  O
  C55      1.0000 0.79526  0.04384  0.61242  Biso   1.000  C
  O48      1.0000 0.05679  0.56942  0.89772  Biso   1.000  O
  C56      1.0000 0.93042  0.11048  0.63678  Biso   1.000  C
  O49      1.0000 0.64559  0.04791  0.64379  Biso   1.000  O
  C57      1.0000 0.98610  0.61792  0.94321  Biso   1.000  C
  C58      1.0000 0.96410  0.08538  0.69588  Biso   1.000  C
  O50      1.0000 0.07864  0.10404  0.60420  Biso   1.000  O
  C59      1.0000 0.66727  0.01710  0.70009  Biso   1.000  C
  C60      1.0000 0.80978  0.65983  0.92929  Biso   1.000  C
  C61      1.0000 0.11651  0.69500  0.95969  Biso   1.000  C
  C62      1.0000 0.80027  0.08264  0.72730  Biso   1.000  C
  O51      1.0000 0.07511  0.15542  0.72021  Biso   1.000  O
  C63      1.0000 0.49916  0.01851  0.72288  Biso   1.000  C
  C64      1.0000 0.66746  0.58778  0.93350  Biso   1.000  C
  O52      1.0000 0.76313  0.73721  0.96609  Biso   1.000  O
  C65      1.0000 0.04612  0.77793  0.99402  Biso   1.000  C
  O53      1.0000 0.25639  0.65117  0.98811  Biso   1.000  O
  O54      1.0000 0.83972  0.04569  0.77931  Biso   1.000  O
  O55      1.0000 0.42403  0.11492  0.72220  Biso   1.000  O
  O56      1.0000 0.51624  0.62569  0.90929  Biso   1.000  O
  C66      1.0000 0.87999  0.81629  0.97001  Biso   1.000  C
  O57      1.0000 0.16065  0.85798  0.99968  Biso   1.000  O
  C67      1.0000 0.78518  0.09811  0.82400  Biso   1.000  C
  O58      1.0000 0.91381  0.85850  0.91941  Biso   1.000  O
  C68      1.0000 0.93387  0.11388  0.86359  Biso   1.000  C
  O59      1.0000 0.65458  0.04717  0.85161  Biso   1.000  O
  C69      1.0000 0.84847  0.95298  0.90792  Biso   1.000  C
  C70      1.0000 0.99594  0.01200  0.88452  Biso   1.000  C
  O60      1.0000 0.06302  0.16920  0.83748  Biso   1.000  O
  C71      1.0000 0.69794  0.94817  0.86978  Biso   1.000  C
  O61      1.0000 0.12479  0.02658  0.92451  Biso   1.000  O
  C72      1.0000 0.53889  0.90537  0.89431  Biso   1.000  C
  O62      1.0000 0.50537  0.95180  0.94281  Biso   1.000  O
  Ne1      1.0000 0.10695  0.25053  0.24668  Biso   1.000  Ne
  He1      1.0000 0.80607  0.28517  0.24323  Biso   1.000  He
  He2      1.0000 0.48122  0.24408  0.27431  Biso   1.000  He
  Ar1      1.0000 0.81864  0.28031  0.24921  Biso   1.000  Ar
  Ne2      1.0000 0.89304  0.75053  0.75331  Biso   1.000  Ne
  He3      1.0000 0.25109  0.78094  0.73742  Biso   1.000  He
  He4      1.0000 0.70174  0.74657  0.72911  Biso   1.000  He
  Ar2      1.0000 0.18154  0.78367  0.75674  Biso   1.000  Ar
