data_image0
_cell_length_a       22.734
_cell_length_b       10.295
_cell_length_c       17.953
_cell_angle_alpha    90
_cell_angle_beta     112.86
_cell_angle_gamma    90

_symmetry_space_group_name_H-M    "P 1"
_symmetry_int_tables_number       1

loop_
  _symmetry_equiv_pos_as_xyz
  'x, y, z'

loop_
  _atom_site_label
  _atom_site_occupancy
  _atom_site_fract_x
  _atom_site_fract_y
  _atom_site_fract_z
  _atom_site_thermal_displace_type
  _atom_site_B_iso_or_equiv
  _atom_site_type_symbol
  C1       1.0000 0.53997  0.34628  0.46020  Biso   1.000  C
  C2       1.0000 0.52566  0.35172  0.37756  Biso   1.000  C
  C3       1.0000 0.59568  0.28674  0.50916  Biso   1.000  C
  H1       1.0000 0.51188  0.38290  0.48220  Biso   1.000  H
  N1       1.0000 0.47005  0.41350  0.32407  Biso   1.000  N
  N2       1.0000 0.56354  0.30092  0.34377  Biso   1.000  N
  C4       1.0000 0.63605  0.23458  0.47573  Biso   1.000  C
  H2       1.0000 0.60650  0.28120  0.56580  Biso   1.000  H
  H3       1.0000 0.43800  0.36746  0.29070  Biso   1.000  H
  C5       1.0000 0.46642  0.54920  0.32455  Biso   1.000  C
  C6       1.0000 0.61783  0.24478  0.39298  Biso   1.000  C
  H4       1.0000 0.67491  0.19330  0.50850  Biso   1.000  H
  N3       1.0000 0.51040  0.61030  0.38675  Biso   1.000  N
  C7       1.0000 0.42016  0.61438  0.26023  Biso   1.000  C
  N4       1.0000 0.65995  0.19951  0.35592  Biso   1.000  N
  C8       1.0000 0.51083  0.74055  0.38717  Biso   1.000  C
  C9       1.0000 0.42139  0.74823  0.26265  Biso   1.000  C
  H5       1.0000 0.38922  0.56853  0.21671  Biso   1.000  H
  C10      1.0000 0.63234  0.10811  0.28901  Biso   1.000  C
  C11      1.0000 0.70294  0.29160  0.35066  Biso   1.000  C
  N5       1.0000 0.56016  0.79446  0.45391  Biso   1.000  N
  C12      1.0000 0.46607  0.81447  0.32685  Biso   1.000  C
  H6       1.0000 0.39102  0.79582  0.21943  Biso   1.000  H
  H7       1.0000 0.66480  0.08354  0.26821  Biso   1.000  H
  H8       1.0000 0.59621  0.14920  0.24578  Biso   1.000  H
  H9       1.0000 0.61762  0.03040  0.30811  Biso   1.000  H
  N6       1.0000 0.70343  0.40379  0.38869  Biso   1.000  N
  C13      1.0000 0.74229  0.26955  0.30829  Biso   1.000  C
  C14      1.0000 0.61613  0.71540  0.48794  Biso   1.000  C
  C15      1.0000 0.57183  0.93375  0.45451  Biso   1.000  C
  H10      1.0000 0.46622  0.90665  0.32951  Biso   1.000  H
  C16      1.0000 0.74238  0.49830  0.38560  Biso   1.000  C
  H11      1.0000 0.74112  0.18951  0.28139  Biso   1.000  H
  C17      1.0000 0.78302  0.36872  0.30714  Biso   1.000  C
  N7       1.0000 0.65161  0.70248  0.44345  Biso   1.000  N
  C18      1.0000 0.63036  0.65488  0.56157  Biso   1.000  C
  H12      1.0000 0.53100  0.97989  0.43070  Biso   1.000  H
  H13      1.0000 0.59772  0.95221  0.42290  Biso   1.000  H
  H14      1.0000 0.59471  0.96319  0.51031  Biso   1.000  H
  N8       1.0000 0.73893  0.61282  0.42423  Biso   1.000  N
  C19      1.0000 0.78398  0.48509  0.34540  Biso   1.000  C
  H15      1.0000 0.81070  0.35639  0.27952  Biso   1.000  H
  C20      1.0000 0.70134  0.62331  0.47132  Biso   1.000  C
  C21      1.0000 0.68264  0.57241  0.58932  Biso   1.000  C
  H16      1.0000 0.60501  0.66926  0.59222  Biso   1.000  H
  H17      1.0000 0.76049  0.68091  0.41939  Biso   1.000  H
  H18      1.0000 0.81171  0.55357  0.34462  Biso   1.000  H
  C22      1.0000 0.71850  0.55444  0.54331  Biso   1.000  C
  H19      1.0000 0.69368  0.52870  0.63949  Biso   1.000  H
  H20      1.0000 0.75379  0.49655  0.56030  Biso   1.000  H
  C23      1.0000 0.57979  0.61438  0.23974  Biso   1.000  C
  C24      1.0000 0.53354  0.54920  0.17542  Biso   1.000  C
  C25      1.0000 0.57859  0.74823  0.23738  Biso   1.000  C
  H21      1.0000 0.61080  0.56853  0.28332  Biso   1.000  H
  N9       1.0000 0.52997  0.41350  0.17597  Biso   1.000  N
  N10      1.0000 0.48958  0.61030  0.11328  Biso   1.000  N
  C26      1.0000 0.53391  0.81447  0.17319  Biso   1.000  C
  H22      1.0000 0.60900  0.79582  0.28060  Biso   1.000  H
  C27      1.0000 0.47434  0.35172  0.12241  Biso   1.000  C
  H23      1.0000 0.56200  0.36746  0.20927  Biso   1.000  H
  C28      1.0000 0.48917  0.74055  0.11280  Biso   1.000  C
  H24      1.0000 0.53380  0.90665  0.17053  Biso   1.000  H
  N11      1.0000 0.43641  0.30092  0.15620  Biso   1.000  N
  C29      1.0000 0.46005  0.34628  0.03984  Biso   1.000  C
  N12      1.0000 0.43986  0.79446  0.04612  Biso   1.000  N
  C30      1.0000 0.38219  0.24478  0.10705  Biso   1.000  C
  C31      1.0000 0.40432  0.28674  0.99081  Biso   1.000  C
  H25      1.0000 0.48808  0.38290  0.01777  Biso   1.000  H
  C32      1.0000 0.38387  0.71540  0.01203  Biso   1.000  C
  C33      1.0000 0.42819  0.93375  0.04552  Biso   1.000  C
  N13      1.0000 0.34007  0.19951  0.14411  Biso   1.000  N
  C34      1.0000 0.36395  0.23458  0.02424  Biso   1.000  C
  H26      1.0000 0.39350  0.28120  0.93417  Biso   1.000  H
  N14      1.0000 0.34834  0.70248  0.05652  Biso   1.000  N
  C35      1.0000 0.36966  0.65488  0.93846  Biso   1.000  C
  H27      1.0000 0.46900  0.97989  0.06927  Biso   1.000  H
  H28      1.0000 0.40228  0.95221  0.07707  Biso   1.000  H
  H29      1.0000 0.40531  0.96319  0.98972  Biso   1.000  H
  C36      1.0000 0.29708  0.29160  0.14937  Biso   1.000  C
  C37      1.0000 0.36763  0.10811  0.21103  Biso   1.000  C
  H30      1.0000 0.32509  0.19330  0.99148  Biso   1.000  H
  C38      1.0000 0.29862  0.62331  0.02865  Biso   1.000  C
  C39      1.0000 0.31738  0.57241  0.91072  Biso   1.000  C
  H31      1.0000 0.39501  0.66926  0.90782  Biso   1.000  H
  C40      1.0000 0.25771  0.26955  0.19168  Biso   1.000  C
  N15      1.0000 0.29659  0.40379  0.11135  Biso   1.000  N
  H32      1.0000 0.33522  0.08354  0.23182  Biso   1.000  H
  H33      1.0000 0.40379  0.14920  0.25419  Biso   1.000  H
  H34      1.0000 0.38240  0.03040  0.19193  Biso   1.000  H
  N16      1.0000 0.26109  0.61282  0.07580  Biso   1.000  N
  C41      1.0000 0.28150  0.55444  0.95666  Biso   1.000  C
  H35      1.0000 0.30628  0.52870  0.86048  Biso   1.000  H
  H36      1.0000 0.25888  0.18951  0.21858  Biso   1.000  H
  C42      1.0000 0.21698  0.36872  0.19283  Biso   1.000  C
  C43      1.0000 0.25762  0.49830  0.11437  Biso   1.000  C
  H37      1.0000 0.23951  0.68091  0.08058  Biso   1.000  H
  H38      1.0000 0.24621  0.49655  0.93967  Biso   1.000  H
  H39      1.0000 0.18932  0.35639  0.22052  Biso   1.000  H
  C44      1.0000 0.21602  0.48509  0.15457  Biso   1.000  C
  H40      1.0000 0.18830  0.55357  0.15541  Biso   1.000  H
  C45      1.0000 0.42016  0.38562  0.76020  Biso   1.000  C
  C46      1.0000 0.42139  0.25177  0.76262  Biso   1.000  C
  H41      1.0000 0.38922  0.43147  0.71668  Biso   1.000  H
  C47      1.0000 0.46644  0.45080  0.82458  Biso   1.000  C
  C48      1.0000 0.46607  0.18553  0.82682  Biso   1.000  C
  H42      1.0000 0.39102  0.20418  0.71940  Biso   1.000  H
  N17      1.0000 0.51040  0.38970  0.88672  Biso   1.000  N
  N18      1.0000 0.47005  0.58650  0.82404  Biso   1.000  N
  C49      1.0000 0.51085  0.25945  0.88721  Biso   1.000  C
  H43      1.0000 0.46618  0.09335  0.82948  Biso   1.000  H
  H44      1.0000 0.43800  0.63254  0.79067  Biso   1.000  H
  C50      1.0000 0.52563  0.64828  0.87760  Biso   1.000  C
  N19      1.0000 0.56016  0.20554  0.95388  Biso   1.000  N
  N20      1.0000 0.56354  0.69908  0.84374  Biso   1.000  N
  C51      1.0000 0.53997  0.65372  0.96017  Biso   1.000  C
  C52      1.0000 0.61615  0.28460  0.98798  Biso   1.000  C
  C53      1.0000 0.57183  0.06625  0.95449  Biso   1.000  C
  C54      1.0000 0.61783  0.75522  0.89295  Biso   1.000  C
  H45      1.0000 0.51188  0.61710  0.98217  Biso   1.000  H
  C55      1.0000 0.59569  0.71326  0.00919  Biso   1.000  C
  N21      1.0000 0.65163  0.29752  0.94349  Biso   1.000  N
  C56      1.0000 0.63036  0.34512  0.06154  Biso   1.000  C
  H46      1.0000 0.53100  0.02011  0.93067  Biso   1.000  H
  H47      1.0000 0.59767  0.04779  0.92287  Biso   1.000  H
  H48      1.0000 0.59471  0.03681  0.01028  Biso   1.000  H
  N22      1.0000 0.65991  0.80049  0.85590  Biso   1.000  N
  C57      1.0000 0.63605  0.76542  0.97570  Biso   1.000  C
  H49      1.0000 0.60650  0.71880  0.06577  Biso   1.000  H
  C58      1.0000 0.70134  0.37669  0.97129  Biso   1.000  C
  C59      1.0000 0.68264  0.42759  0.08929  Biso   1.000  C
  H50      1.0000 0.60501  0.33074  0.09219  Biso   1.000  H
  C60      1.0000 0.63234  0.89189  0.78898  Biso   1.000  C
  C61      1.0000 0.70290  0.70840  0.85064  Biso   1.000  C
  H51      1.0000 0.67489  0.80670  0.00853  Biso   1.000  H
  N23      1.0000 0.73893  0.38718  0.92420  Biso   1.000  N
  C62      1.0000 0.71847  0.44556  0.04335  Biso   1.000  C
  H52      1.0000 0.69370  0.47130  0.13952  Biso   1.000  H
  H53      1.0000 0.66480  0.91646  0.76818  Biso   1.000  H
  H54      1.0000 0.59623  0.85080  0.74582  Biso   1.000  H
  H55      1.0000 0.61762  0.96960  0.80808  Biso   1.000  H
  N24      1.0000 0.70343  0.59621  0.88866  Biso   1.000  N
  C63      1.0000 0.74224  0.73045  0.80826  Biso   1.000  C
  H56      1.0000 0.76051  0.31909  0.91943  Biso   1.000  H
  C64      1.0000 0.74240  0.50170  0.88564  Biso   1.000  C
  H57      1.0000 0.75379  0.50345  0.06027  Biso   1.000  H
  C65      1.0000 0.78299  0.63128  0.80717  Biso   1.000  C
  H58      1.0000 0.74109  0.81049  0.78142  Biso   1.000  H
  C66      1.0000 0.78400  0.51491  0.84544  Biso   1.000  C
  H59      1.0000 0.81070  0.64361  0.77949  Biso   1.000  H
  H60      1.0000 0.81171  0.44643  0.84459  Biso   1.000  H
  N25      1.0000 0.23893  0.11277  0.42423  Biso   1.000  N
  H61      1.0000 0.26049  0.18086  0.41939  Biso   1.000  H
  C67      1.0000 0.20134  0.12326  0.47132  Biso   1.000  C
  C68      1.0000 0.24238  0.99825  0.38560  Biso   1.000  C
  N26      1.0000 0.15161  0.20253  0.44345  Biso   1.000  N
  C69      1.0000 0.21850  0.05440  0.54331  Biso   1.000  C
  N27      1.0000 0.20343  0.90384  0.38869  Biso   1.000  N
  C70      1.0000 0.28398  0.98514  0.34540  Biso   1.000  C
  C71      1.0000 0.11613  0.21544  0.48794  Biso   1.000  C
  C72      1.0000 0.18264  0.07237  0.58932  Biso   1.000  C
  H62      1.0000 0.25379  0.99660  0.56030  Biso   1.000  H
  C73      1.0000 0.20294  0.79165  0.35066  Biso   1.000  C
  H63      1.0000 0.31171  0.05362  0.34462  Biso   1.000  H
  C74      1.0000 0.28302  0.86867  0.30714  Biso   1.000  C
  N28      1.0000 0.06016  0.29451  0.45391  Biso   1.000  N
  C75      1.0000 0.13036  0.15493  0.56157  Biso   1.000  C
  H64      1.0000 0.19368  0.02865  0.63949  Biso   1.000  H
  N29      1.0000 0.15995  0.69947  0.35592  Biso   1.000  N
  C76      1.0000 0.24229  0.76950  0.30829  Biso   1.000  C
  H65      1.0000 0.31070  0.85644  0.27952  Biso   1.000  H
  C77      1.0000 0.01083  0.24060  0.38717  Biso   1.000  C
  C78      1.0000 0.07183  0.43380  0.45451  Biso   1.000  C
  H66      1.0000 0.10501  0.16931  0.59222  Biso   1.000  H
  C79      1.0000 0.11783  0.74483  0.39298  Biso   1.000  C
  C80      1.0000 0.13234  0.60806  0.28901  Biso   1.000  C
  H67      1.0000 0.24112  0.68946  0.28139  Biso   1.000  H
  N30      1.0000 0.01040  0.11034  0.38675  Biso   1.000  N
  C81      1.0000 0.96607  0.31452  0.32685  Biso   1.000  C
  H68      1.0000 0.03100  0.47994  0.43070  Biso   1.000  H
  H69      1.0000 0.09772  0.45216  0.42290  Biso   1.000  H
  H70      1.0000 0.09471  0.46323  0.51031  Biso   1.000  H
  N31      1.0000 0.06354  0.80087  0.34377  Biso   1.000  N
  C82      1.0000 0.13605  0.73463  0.47573  Biso   1.000  C
  H71      1.0000 0.16480  0.58349  0.26821  Biso   1.000  H
  H72      1.0000 0.09621  0.64925  0.24578  Biso   1.000  H
  H73      1.0000 0.11762  0.53035  0.30811  Biso   1.000  H
  C83      1.0000 0.96642  0.04925  0.32455  Biso   1.000  C
  H74      1.0000 0.96622  0.40670  0.32951  Biso   1.000  H
  C84      1.0000 0.92139  0.24818  0.26265  Biso   1.000  C
  C85      1.0000 0.02566  0.85168  0.37756  Biso   1.000  C
  H75      1.0000 0.17491  0.69335  0.50850  Biso   1.000  H
  C86      1.0000 0.09568  0.78669  0.50916  Biso   1.000  C
  N32      1.0000 0.97005  0.91345  0.32407  Biso   1.000  N
  C87      1.0000 0.92016  0.11442  0.26023  Biso   1.000  C
  H76      1.0000 0.89102  0.29577  0.21943  Biso   1.000  H
  C88      1.0000 0.03997  0.84633  0.46020  Biso   1.000  C
  H77      1.0000 0.10650  0.78116  0.56580  Biso   1.000  H
  H78      1.0000 0.93800  0.86751  0.29070  Biso   1.000  H
  H79      1.0000 0.88922  0.06848  0.21671  Biso   1.000  H
  H80      1.0000 0.01188  0.88286  0.48220  Biso   1.000  H
  C89      1.0000 0.71602  0.98514  0.15457  Biso   1.000  C
  C90      1.0000 0.75762  0.99825  0.11437  Biso   1.000  C
  H81      1.0000 0.68830  0.05362  0.15541  Biso   1.000  H
  C91      1.0000 0.71698  0.86867  0.19283  Biso   1.000  C
  N33      1.0000 0.76109  0.11277  0.07580  Biso   1.000  N
  N34      1.0000 0.79659  0.90384  0.11135  Biso   1.000  N
  C92      1.0000 0.75771  0.76950  0.19168  Biso   1.000  C
  H82      1.0000 0.68932  0.85644  0.22052  Biso   1.000  H
  H83      1.0000 0.73951  0.18086  0.08058  Biso   1.000  H
  C93      1.0000 0.79862  0.12326  0.02865  Biso   1.000  C
  C94      1.0000 0.79708  0.79165  0.14937  Biso   1.000  C
  H84      1.0000 0.75888  0.68946  0.21858  Biso   1.000  H
  N35      1.0000 0.84834  0.20253  0.05652  Biso   1.000  N
  C95      1.0000 0.78150  0.05440  0.95666  Biso   1.000  C
  N36      1.0000 0.84007  0.69947  0.14411  Biso   1.000  N
  C96      1.0000 0.88387  0.21544  0.01203  Biso   1.000  C
  H85      1.0000 0.74621  0.99660  0.93967  Biso   1.000  H
  C97      1.0000 0.81738  0.07237  0.91072  Biso   1.000  C
  C98      1.0000 0.88219  0.74483  0.10705  Biso   1.000  C
  C99      1.0000 0.86763  0.60806  0.21103  Biso   1.000  C
  N37      1.0000 0.93986  0.29451  0.04612  Biso   1.000  N
  C100     1.0000 0.86966  0.15493  0.93846  Biso   1.000  C
  H86      1.0000 0.80628  0.02865  0.86048  Biso   1.000  H
  N38      1.0000 0.93641  0.80087  0.15620  Biso   1.000  N
  C101     1.0000 0.86395  0.73463  0.02424  Biso   1.000  C
  H87      1.0000 0.83522  0.58349  0.23182  Biso   1.000  H
  H88      1.0000 0.90379  0.64925  0.25419  Biso   1.000  H
  H89      1.0000 0.88240  0.53035  0.19193  Biso   1.000  H
  C102     1.0000 0.98917  0.24060  0.11280  Biso   1.000  C
  C103     1.0000 0.92819  0.43380  0.04552  Biso   1.000  C
  H90      1.0000 0.89501  0.16931  0.90782  Biso   1.000  H
  C104     1.0000 0.97434  0.85168  0.12241  Biso   1.000  C
  H91      1.0000 0.82509  0.69335  0.99148  Biso   1.000  H
  C105     1.0000 0.90432  0.78669  0.99081  Biso   1.000  C
  N39      1.0000 0.98958  0.11034  0.11328  Biso   1.000  N
  C106     1.0000 0.03391  0.31452  0.17319  Biso   1.000  C
  H92      1.0000 0.96900  0.47994  0.06927  Biso   1.000  H
  H93      1.0000 0.90228  0.45216  0.07707  Biso   1.000  H
  H94      1.0000 0.90531  0.46323  0.98972  Biso   1.000  H
  N40      1.0000 0.02997  0.91345  0.17597  Biso   1.000  N
  C107     1.0000 0.96005  0.84633  0.03984  Biso   1.000  C
  H95      1.0000 0.89350  0.78116  0.93417  Biso   1.000  H
  C108     1.0000 0.03354  0.04925  0.17542  Biso   1.000  C
  H96      1.0000 0.03380  0.40670  0.17053  Biso   1.000  H
  C109     1.0000 0.07859  0.24818  0.23738  Biso   1.000  C
  H97      1.0000 0.06200  0.86751  0.20927  Biso   1.000  H
  H98      1.0000 0.98808  0.88286  0.01777  Biso   1.000  H
  C110     1.0000 0.07979  0.11442  0.23974  Biso   1.000  C
  H99      1.0000 0.10900  0.29577  0.28060  Biso   1.000  H
  H100     1.0000 0.11080  0.06848  0.28332  Biso   1.000  H
  C111     1.0000 0.28400  0.01486  0.84544  Biso   1.000  C
  C112     1.0000 0.24240  0.00175  0.88564  Biso   1.000  C
  H101     1.0000 0.31171  0.94638  0.84459  Biso   1.000  H
  C113     1.0000 0.28299  0.13133  0.80717  Biso   1.000  C
  N41      1.0000 0.23893  0.88723  0.92420  Biso   1.000  N
  N42      1.0000 0.20343  0.09616  0.88866  Biso   1.000  N
  C114     1.0000 0.24224  0.23050  0.80826  Biso   1.000  C
  H102     1.0000 0.31070  0.14356  0.77949  Biso   1.000  H
  H103     1.0000 0.26051  0.81914  0.91943  Biso   1.000  H
  C115     1.0000 0.20134  0.87674  0.97129  Biso   1.000  C
  C116     1.0000 0.20290  0.20835  0.85064  Biso   1.000  C
  H104     1.0000 0.24109  0.31054  0.78142  Biso   1.000  H
  N43      1.0000 0.15163  0.79747  0.94349  Biso   1.000  N
  C117     1.0000 0.21847  0.94560  0.04335  Biso   1.000  C
  N44      1.0000 0.15991  0.30053  0.85590  Biso   1.000  N
  C118     1.0000 0.11615  0.78456  0.98798  Biso   1.000  C
  C119     1.0000 0.18264  0.92763  0.08929  Biso   1.000  C
  H105     1.0000 0.25379  0.00340  0.06027  Biso   1.000  H
  C120     1.0000 0.11783  0.25517  0.89295  Biso   1.000  C
  C121     1.0000 0.13234  0.39194  0.78898  Biso   1.000  C
  N45      1.0000 0.06016  0.70549  0.95388  Biso   1.000  N
  C122     1.0000 0.13036  0.84507  0.06154  Biso   1.000  C
  H106     1.0000 0.19370  0.97135  0.13952  Biso   1.000  H
  N46      1.0000 0.06354  0.19913  0.84374  Biso   1.000  N
  C123     1.0000 0.13605  0.26537  0.97570  Biso   1.000  C
  H107     1.0000 0.16480  0.41651  0.76818  Biso   1.000  H
  H108     1.0000 0.09623  0.35075  0.74582  Biso   1.000  H
  H109     1.0000 0.11762  0.46965  0.80808  Biso   1.000  H
  C124     1.0000 0.01085  0.75940  0.88721  Biso   1.000  C
  C125     1.0000 0.07183  0.56620  0.95449  Biso   1.000  C
  H110     1.0000 0.10501  0.83069  0.09219  Biso   1.000  H
  C126     1.0000 0.02563  0.14832  0.87760  Biso   1.000  C
  H111     1.0000 0.17489  0.30665  0.00853  Biso   1.000  H
  C127     1.0000 0.09569  0.21331  0.00919  Biso   1.000  C
  N47      1.0000 0.01040  0.88966  0.88672  Biso   1.000  N
  C128     1.0000 0.96607  0.68548  0.82682  Biso   1.000  C
  H112     1.0000 0.03100  0.52006  0.93067  Biso   1.000  H
  H113     1.0000 0.09767  0.54784  0.92287  Biso   1.000  H
  H114     1.0000 0.09471  0.53677  0.01028  Biso   1.000  H
  N48      1.0000 0.97005  0.08655  0.82404  Biso   1.000  N
  C129     1.0000 0.03997  0.15367  0.96017  Biso   1.000  C
  H115     1.0000 0.10650  0.21884  0.06577  Biso   1.000  H
  C130     1.0000 0.96644  0.95075  0.82458  Biso   1.000  C
  H116     1.0000 0.96618  0.59330  0.82948  Biso   1.000  H
  C131     1.0000 0.92139  0.75182  0.76262  Biso   1.000  C
  H117     1.0000 0.93800  0.13249  0.79067  Biso   1.000  H
  H118     1.0000 0.01188  0.11714  0.98217  Biso   1.000  H
  C132     1.0000 0.92016  0.88558  0.76020  Biso   1.000  C
  H119     1.0000 0.89102  0.70423  0.71940  Biso   1.000  H
  H120     1.0000 0.88922  0.93152  0.71668  Biso   1.000  H
  Ne1      1.0000 0.38797  0.50186  0.10086  Biso   1.000  Ne
  He1      1.0000 0.39902  0.52883  0.15907  Biso   1.000  He
  He2      1.0000 0.45235  0.54285  0.00187  Biso   1.000  He
  Ar1      1.0000 0.39440  0.51644  0.13757  Biso   1.000  Ar
  Ne2      1.0000 0.11203  0.00186  0.39914  Biso   1.000  Ne
  He3      1.0000 0.06646  0.03411  0.48242  Biso   1.000  He
  He4      1.0000 0.09245  0.04254  0.32264  Biso   1.000  He
  Ar2      1.0000 0.10559  0.01637  0.36249  Biso   1.000  Ar
  Ne3      1.0000 0.61203  0.50186  0.39914  Biso   1.000  Ne
  He5      1.0000 0.56646  0.53406  0.48242  Biso   1.000  He
  He6      1.0000 0.59244  0.54255  0.32265  Biso   1.000  He
  Ar3      1.0000 0.60561  0.51636  0.36247  Biso   1.000  Ar
  Ne4      1.0000 0.61203  0.49814  0.89914  Biso   1.000  Ne
  He7      1.0000 0.69542  0.61667  0.98665  Biso   1.000  He
  He8      1.0000 0.56727  0.46630  0.98170  Biso   1.000  He
  He9      1.0000 0.59330  0.46044  0.82836  Biso   1.000  He
  Ar4      1.0000 0.60554  0.48356  0.86247  Biso   1.000  Ar
  Ne5      1.0000 0.88797  0.00186  0.10086  Biso   1.000  Ne
  He10     1.0000 0.89906  0.02885  0.15906  Biso   1.000  He
  He11     1.0000 0.95235  0.04290  0.00187  Biso   1.000  He
  Ar5      1.0000 0.89462  0.01658  0.13756  Biso   1.000  Ar
  Ne6      1.0000 0.11203  0.99814  0.89914  Biso   1.000  Ne
  He12     1.0000 0.05120  0.95878  0.99523  Biso   1.000  He
  He13     1.0000 0.19777  0.11932  0.98833  Biso   1.000  He
  He14     1.0000 0.10499  0.98604  0.87441  Biso   1.000  He
  Ar6      1.0000 0.11001  0.00114  0.89701  Biso   1.000  Ar
