data_image0
_cell_length_a       10.937
_cell_length_b       10.937
_cell_length_c       10.937
_cell_angle_alpha    83.33
_cell_angle_beta     83.33
_cell_angle_gamma    83.33

_symmetry_space_group_name_H-M    "P 1"
_symmetry_int_tables_number       1

loop_
  _symmetry_equiv_pos_as_xyz
  'x, y, z'

loop_
  _atom_site_label
  _atom_site_occupancy
  _atom_site_fract_x
  _atom_site_fract_y
  _atom_site_fract_z
  _atom_site_thermal_displace_type
  _atom_site_B_iso_or_equiv
  _atom_site_type_symbol
  N1       1.0000 0.58177  0.58182  0.58182  Biso   1.000  N
  C1       1.0000 0.69172  0.55882  0.49500  Biso   1.000  C
  C2       1.0000 0.49496  0.69174  0.55877  Biso   1.000  C
  C3       1.0000 0.55879  0.49499  0.69169  Biso   1.000  C
  C4       1.0000 0.79628  0.63157  0.51777  Biso   1.000  C
  H1       1.0000 0.71004  0.45897  0.49297  Biso   1.000  H
  H2       1.0000 0.65400  0.58901  0.40300  Biso   1.000  H
  C5       1.0000 0.51779  0.79628  0.63162  Biso   1.000  C
  H3       1.0000 0.49300  0.71004  0.45900  Biso   1.000  H
  H4       1.0000 0.40303  0.65398  0.58904  Biso   1.000  H
  C6       1.0000 0.63159  0.51780  0.79628  Biso   1.000  C
  H5       1.0000 0.45897  0.49299  0.71002  Biso   1.000  H
  H6       1.0000 0.58903  0.40299  0.65402  Biso   1.000  H
  O1       1.0000 0.89194  0.61810  0.41540  Biso   1.000  O
  H7       1.0000 0.76103  0.71801  0.51601  Biso   1.000  H
  H8       1.0000 0.83699  0.60496  0.60802  Biso   1.000  H
  O2       1.0000 0.41536  0.89186  0.61810  Biso   1.000  O
  H9       1.0000 0.51598  0.76097  0.71798  Biso   1.000  H
  H10      1.0000 0.60805  0.83698  0.60496  Biso   1.000  H
  O3       1.0000 0.61811  0.41543  0.89189  Biso   1.000  O
  H11      1.0000 0.71799  0.51604  0.76101  Biso   1.000  H
  H12      1.0000 0.60504  0.60801  0.83701  Biso   1.000  H
  C7       1.0000 0.98736  0.68373  0.41457  Biso   1.000  C
  C8       1.0000 0.41457  0.98740  0.68373  Biso   1.000  C
  C9       1.0000 0.68373  0.41460  0.98741  Biso   1.000  C
  N2       1.0000 0.98936  0.74996  0.51064  Biso   1.000  N
  C10      1.0000 0.08014  0.68133  0.31646  Biso   1.000  C
  N3       1.0000 0.51059  0.98943  0.75000  Biso   1.000  N
  C11      1.0000 0.31649  0.08007  0.68132  Biso   1.000  C
  N4       1.0000 0.74998  0.51060  0.98936  Biso   1.000  N
  C12      1.0000 0.68135  0.31649  0.08006  Biso   1.000  C
  C13      1.0000 0.08538  0.81631  0.51259  Biso   1.000  C
  C14      1.0000 0.17784  0.74996  0.32220  Biso   1.000  C
  H13      1.0000 0.07601  0.63898  0.24398  Biso   1.000  H
  C15      1.0000 0.51260  0.08536  0.81627  Biso   1.000  C
  C16      1.0000 0.32222  0.17778  0.75000  Biso   1.000  C
  H14      1.0000 0.24397  0.07601  0.63902  Biso   1.000  H
  C17      1.0000 0.81631  0.51257  0.08543  Biso   1.000  C
  C18      1.0000 0.74998  0.32215  0.17781  Biso   1.000  C
  H15      1.0000 0.63904  0.24401  0.07599  Biso   1.000  H
  C19      1.0000 0.18346  0.81868  0.41994  Biso   1.000  C
  O4       1.0000 0.08460  0.88186  0.60811  Biso   1.000  O
  H16      1.0000 0.24403  0.75003  0.25602  Biso   1.000  H
  O5       1.0000 0.60811  0.08461  0.88190  Biso   1.000  O
  C20      1.0000 0.41991  0.18352  0.81868  Biso   1.000  C
  H17      1.0000 0.25601  0.24397  0.75000  Biso   1.000  H
  O6       1.0000 0.88193  0.60811  0.08460  Biso   1.000  O
  C21      1.0000 0.81870  0.41987  0.18354  Biso   1.000  C
  H18      1.0000 0.74998  0.25598  0.24398  Biso   1.000  H
  H19      1.0000 0.25598  0.86097  0.42401  Biso   1.000  H
  C22      1.0000 0.98216  0.86841  0.70372  Biso   1.000  C
  C23      1.0000 0.70368  0.98218  0.86838  Biso   1.000  C
  H20      1.0000 0.42404  0.25598  0.86098  Biso   1.000  H
  C24      1.0000 0.86836  0.70373  0.98223  Biso   1.000  C
  H21      1.0000 0.86100  0.42402  0.25602  Biso   1.000  H
  H22      1.0000 0.98399  0.78198  0.73899  Biso   1.000  H
  H23      1.0000 0.89200  0.89501  0.66300  Biso   1.000  H
  C25      1.0000 0.00499  0.94120  0.80831  Biso   1.000  C
  H24      1.0000 0.73901  0.98398  0.78203  Biso   1.000  H
  H25      1.0000 0.66296  0.89204  0.89504  Biso   1.000  H
  C26      1.0000 0.80833  0.00497  0.94123  Biso   1.000  C
  H26      1.0000 0.78205  0.73899  0.98399  Biso   1.000  H
  H27      1.0000 0.89500  0.66305  0.89198  Biso   1.000  H
  C27      1.0000 0.94116  0.80833  0.00500  Biso   1.000  C
  N5       1.0000 0.91819  0.91817  0.91818  Biso   1.000  N
  H28      1.0000 0.09701  0.91105  0.84598  Biso   1.000  H
  H29      1.0000 0.00705  0.04096  0.78999  Biso   1.000  H
  H30      1.0000 0.84604  0.09705  0.91096  Biso   1.000  H
  H31      1.0000 0.79001  0.00702  0.04100  Biso   1.000  H
  H32      1.0000 0.91101  0.84598  0.09700  Biso   1.000  H
  H33      1.0000 0.04098  0.78999  0.00703  Biso   1.000  H
  N6       1.0000 0.41816  0.41823  0.41818  Biso   1.000  N
  C28      1.0000 0.50497  0.30832  0.44123  Biso   1.000  C
  C29      1.0000 0.30831  0.44124  0.50500  Biso   1.000  C
  C30      1.0000 0.44124  0.50497  0.30831  Biso   1.000  C
  C31      1.0000 0.48224  0.20368  0.36838  Biso   1.000  C
  H34      1.0000 0.50702  0.29002  0.54100  Biso   1.000  H
  H35      1.0000 0.59700  0.34599  0.41096  Biso   1.000  H
  C32      1.0000 0.20366  0.36840  0.48223  Biso   1.000  C
  H36      1.0000 0.28999  0.54100  0.50703  Biso   1.000  H
  H37      1.0000 0.34602  0.41104  0.59700  Biso   1.000  H
  C33      1.0000 0.36845  0.48216  0.20372  Biso   1.000  C
  H38      1.0000 0.54097  0.50697  0.28999  Biso   1.000  H
  H39      1.0000 0.41100  0.59697  0.34598  Biso   1.000  H
  O7       1.0000 0.58458  0.10810  0.38190  Biso   1.000  O
  H40      1.0000 0.48397  0.23899  0.28203  Biso   1.000  H
  H41      1.0000 0.39198  0.16298  0.39504  Biso   1.000  H
  O8       1.0000 0.10810  0.38186  0.58460  Biso   1.000  O
  H42      1.0000 0.23900  0.28196  0.48399  Biso   1.000  H
  H43      1.0000 0.16296  0.39500  0.39198  Biso   1.000  H
  O9       1.0000 0.38191  0.58463  0.10811  Biso   1.000  O
  H44      1.0000 0.28203  0.48401  0.23899  Biso   1.000  H
  H45      1.0000 0.39498  0.39204  0.16300  Biso   1.000  H
  C34      1.0000 0.58538  0.01256  0.31627  Biso   1.000  C
  C35      1.0000 0.01257  0.31632  0.58543  Biso   1.000  C
  C36      1.0000 0.31630  0.58536  0.01259  Biso   1.000  C
  N7       1.0000 0.48943  0.01062  0.25000  Biso   1.000  N
  C37      1.0000 0.68355  0.91989  0.31868  Biso   1.000  C
  N8       1.0000 0.01058  0.25001  0.48936  Biso   1.000  N
  C38      1.0000 0.91988  0.31872  0.68354  Biso   1.000  C
  N9       1.0000 0.24996  0.48937  0.01064  Biso   1.000  N
  C39      1.0000 0.31869  0.68347  0.91994  Biso   1.000  C
  C40      1.0000 0.48744  0.91460  0.18373  Biso   1.000  C
  C41      1.0000 0.67782  0.82218  0.25000  Biso   1.000  C
  H46      1.0000 0.75596  0.92405  0.36098  Biso   1.000  H
  C42      1.0000 0.91464  0.18374  0.48741  Biso   1.000  C
  C43      1.0000 0.82220  0.25000  0.67780  Biso   1.000  C
  H47      1.0000 0.92402  0.36098  0.75602  Biso   1.000  H
  C44      1.0000 0.18372  0.48740  0.91457  Biso   1.000  C
  C45      1.0000 0.24996  0.67781  0.82220  Biso   1.000  C
  H48      1.0000 0.36100  0.75595  0.92401  Biso   1.000  H
  O10      1.0000 0.39193  0.91535  0.11810  Biso   1.000  O
  C46      1.0000 0.58012  0.81654  0.18132  Biso   1.000  C
  H49      1.0000 0.74402  0.75600  0.25000  Biso   1.000  H
  C47      1.0000 0.81648  0.18128  0.58006  Biso   1.000  C
  O11      1.0000 0.91544  0.11811  0.39189  Biso   1.000  O
  H50      1.0000 0.75599  0.25002  0.74398  Biso   1.000  H
  O12      1.0000 0.11809  0.39194  0.91540  Biso   1.000  O
  C48      1.0000 0.18133  0.58009  0.81646  Biso   1.000  C
  H51      1.0000 0.24996  0.74398  0.75602  Biso   1.000  H
  C49      1.0000 0.29626  0.01779  0.13162  Biso   1.000  C
  H52      1.0000 0.57599  0.74398  0.13902  Biso   1.000  H
  H53      1.0000 0.74396  0.13899  0.57599  Biso   1.000  H
  C50      1.0000 0.01777  0.13165  0.29628  Biso   1.000  C
  C51      1.0000 0.13157  0.29632  0.01777  Biso   1.000  C
  H54      1.0000 0.13902  0.57603  0.74398  Biso   1.000  H
  H55      1.0000 0.26102  0.01598  0.21797  Biso   1.000  H
  H56      1.0000 0.33697  0.10801  0.10496  Biso   1.000  H
  C52      1.0000 0.19171  0.99499  0.05877  Biso   1.000  C
  C53      1.0000 0.99505  0.05876  0.19169  Biso   1.000  C
  H57      1.0000 0.01596  0.21798  0.26101  Biso   1.000  H
  H58      1.0000 0.10802  0.10504  0.33700  Biso   1.000  H
  C54      1.0000 0.05877  0.19172  0.99500  Biso   1.000  C
  H59      1.0000 0.21799  0.26097  0.01601  Biso   1.000  H
  H60      1.0000 0.10503  0.33701  0.10802  Biso   1.000  H
  N10      1.0000 0.08176  0.08179  0.08182  Biso   1.000  N
  H61      1.0000 0.21002  0.99304  0.95900  Biso   1.000  H
  H62      1.0000 0.15398  0.90300  0.08904  Biso   1.000  H
  H63      1.0000 0.99299  0.95900  0.21001  Biso   1.000  H
  H64      1.0000 0.90302  0.08901  0.15402  Biso   1.000  H
  H65      1.0000 0.95896  0.20997  0.99297  Biso   1.000  H
  H66      1.0000 0.08902  0.15398  0.90300  Biso   1.000  H
