data_image0
_cell_length_a       14.686
_cell_length_b       20.098
_cell_length_c       14.503
_cell_angle_alpha    90
_cell_angle_beta     111.06
_cell_angle_gamma    90

_symmetry_space_group_name_H-M    "P 1"
_symmetry_int_tables_number       1

loop_
  _symmetry_equiv_pos_as_xyz
  'x, y, z'

loop_
  _atom_site_label
  _atom_site_occupancy
  _atom_site_fract_x
  _atom_site_fract_y
  _atom_site_fract_z
  _atom_site_thermal_displace_type
  _atom_site_B_iso_or_equiv
  _atom_site_type_symbol
  O1       1.0000 0.77004  0.35969  0.83521  Biso   1.000  O
  C1       1.0000 0.80534  0.33770  0.91915  Biso   1.000  C
  C2       1.0000 0.80537  0.33770  0.91922  Biso   1.000  C
  N1       1.0000 0.77025  0.34954  0.99429  Biso   1.000  N
  N2       1.0000 0.88552  0.29829  0.95513  Biso   1.000  N
  C3       1.0000 0.67365  0.37541  0.97575  Biso   1.000  C
  C4       1.0000 0.82011  0.30849  0.07993  Biso   1.000  C
  C5       1.0000 0.92781  0.26590  0.88952  Biso   1.000  C
  C6       1.0000 0.90196  0.27490  0.05288  Biso   1.000  C
  H1       1.0000 0.63721  0.37461  0.90511  Biso   1.000  H
  H2       1.0000 0.64026  0.34640  0.00678  Biso   1.000  H
  N3       1.0000 0.67308  0.44308  0.01195  Biso   1.000  N
  H3       1.0000 0.77610  0.27560  0.09138  Biso   1.000  H
  H4       1.0000 0.77603  0.27560  0.09138  Biso   1.000  H
  N4       1.0000 0.87298  0.34541  0.16903  Biso   1.000  N
  H5       1.0000 0.88271  0.27038  0.82191  Biso   1.000  H
  H6       1.0000 0.93499  0.21878  0.90496  Biso   1.000  H
  H7       1.0000 0.93502  0.21878  0.90504  Biso   1.000  H
  N5       1.0000 0.02136  0.29242  0.89639  Biso   1.000  N
  H8       1.0000 0.89746  0.22619  0.05458  Biso   1.000  H
  N6       1.0000 0.99137  0.29918  0.12965  Biso   1.000  N
  C7       1.0000 0.66507  0.49721  0.95255  Biso   1.000  C
  C8       1.0000 0.68925  0.46129  0.11391  Biso   1.000  C
  C9       1.0000 0.82521  0.38292  0.22400  Biso   1.000  C
  C10      1.0000 0.97286  0.33700  0.19933  Biso   1.000  C
  C11      1.0000 0.82514  0.38292  0.22400  Biso   1.000  C
  C12      1.0000 0.03672  0.32809  0.82206  Biso   1.000  C
  C13      1.0000 0.11286  0.27500  0.97715  Biso   1.000  C
  C14      1.0000 0.03674  0.32809  0.82214  Biso   1.000  C
  C15      1.0000 0.08644  0.27540  0.14140  Biso   1.000  C
  O2       1.0000 0.65184  0.49393  0.86307  Biso   1.000  O
  O3       1.0000 0.65187  0.49393  0.86314  Biso   1.000  O
  N7       1.0000 0.66995  0.55304  0.00486  Biso   1.000  N
  N8       1.0000 0.66998  0.55304  0.00493  Biso   1.000  N
  C16      1.0000 0.68726  0.54100  0.10889  Biso   1.000  C
  N9       1.0000 0.78879  0.44781  0.18241  Biso   1.000  N
  C17      1.0000 0.61246  0.42920  0.14812  Biso   1.000  C
  O4       1.0000 0.03341  0.35800  0.27632  Biso   1.000  O
  H9       1.0000 0.87086  0.38899  0.29087  Biso   1.000  H
  H10      1.0000 0.77088  0.35680  0.22748  Biso   1.000  H
  H11      1.0000 0.87089  0.38899  0.29095  Biso   1.000  H
  H12      1.0000 0.77090  0.35680  0.22755  Biso   1.000  H
  C18      1.0000 0.19144  0.30849  0.94471  Biso   1.000  C
  H13      1.0000 0.12216  0.22669  0.98321  Biso   1.000  H
  N10      1.0000 0.12629  0.30491  0.07084  Biso   1.000  N
  O5       1.0000 0.97513  0.34421  0.74367  Biso   1.000  O
  O6       1.0000 0.97515  0.34421  0.74374  Biso   1.000  O
  N11      1.0000 0.13465  0.33998  0.84992  Biso   1.000  N
  H14      1.0000 0.08390  0.22739  0.13327  Biso   1.000  H
  H15      1.0000 0.13041  0.28510  0.20812  Biso   1.000  H
  H16      1.0000 0.08386  0.22739  0.13335  Biso   1.000  H
  C19      1.0000 0.66664  0.61742  0.95964  Biso   1.000  C
  C20      1.0000 0.60995  0.57359  0.14029  Biso   1.000  C
  N12      1.0000 0.78677  0.55777  0.17420  Biso   1.000  N
  H17      1.0000 0.61627  0.38168  0.14391  Biso   1.000  H
  H18      1.0000 0.54876  0.44402  0.10660  Biso   1.000  H
  H19      1.0000 0.62414  0.44179  0.21521  Biso   1.000  H
  C21      1.0000 0.84145  0.50398  0.21950  Biso   1.000  C
  H20      1.0000 0.23811  0.27600  0.93732  Biso   1.000  H
  N13      1.0000 0.23780  0.35486  0.02451  Biso   1.000  N
  C22      1.0000 0.20299  0.34740  0.10084  Biso   1.000  C
  C23      1.0000 0.18033  0.37511  0.79081  Biso   1.000  C
  H21      1.0000 0.63091  0.64788  0.98579  Biso   1.000  H
  H22      1.0000 0.63104  0.61339  0.88908  Biso   1.000  H
  N14      1.0000 0.76222  0.64514  0.97552  Biso   1.000  N
  H23      1.0000 0.61049  0.62081  0.13009  Biso   1.000  H
  H24      1.0000 0.62348  0.56468  0.20893  Biso   1.000  H
  H25      1.0000 0.54707  0.55598  0.10165  Biso   1.000  H
  C24      1.0000 0.81967  0.62489  0.20915  Biso   1.000  C
  C25      1.0000 0.81969  0.62489  0.20923  Biso   1.000  C
  O7       1.0000 0.92373  0.50582  0.28156  Biso   1.000  O
  O8       1.0000 0.92376  0.50582  0.28164  Biso   1.000  O
  C26      1.0000 0.33339  0.38258  0.04040  Biso   1.000  C
  O9       1.0000 0.23596  0.37501  0.18108  Biso   1.000  O
  O10      1.0000 0.23598  0.37501  0.18115  Biso   1.000  O
  H26      1.0000 0.13420  0.37790  0.72335  Biso   1.000  H
  H27      1.0000 0.23583  0.34939  0.78985  Biso   1.000  H
  H28      1.0000 0.13422  0.37790  0.72342  Biso   1.000  H
  N15      1.0000 0.21326  0.44223  0.82583  Biso   1.000  N
  C27      1.0000 0.79703  0.65260  0.89920  Biso   1.000  C
  C28      1.0000 0.80859  0.69151  0.05532  Biso   1.000  C
  H29      1.0000 0.76420  0.65061  0.21019  Biso   1.000  H
  H30      1.0000 0.86580  0.62210  0.27661  Biso   1.000  H
  N16      1.0000 0.86538  0.66002  0.15012  Biso   1.000  N
  N17      1.0000 0.33005  0.44696  0.99510  Biso   1.000  N
  H31      1.0000 0.36909  0.35212  0.01417  Biso   1.000  H
  H32      1.0000 0.36895  0.38661  0.11088  Biso   1.000  H
  H33      1.0000 0.36905  0.35212  0.01424  Biso   1.000  H
  C29      1.0000 0.15855  0.49602  0.78046  Biso   1.000  C
  C30      1.0000 0.31277  0.45900  0.89115  Biso   1.000  C
  C31      1.0000 0.15851  0.49602  0.78054  Biso   1.000  C
  O11      1.0000 0.76404  0.62499  0.81888  Biso   1.000  O
  N18      1.0000 0.87373  0.69509  0.92920  Biso   1.000  N
  C32      1.0000 0.88716  0.72500  0.02289  Biso   1.000  C
  H34      1.0000 0.76184  0.72400  0.06271  Biso   1.000  H
  C33      1.0000 0.96328  0.67191  0.17790  Biso   1.000  C
  C34      1.0000 0.33495  0.50279  0.04749  Biso   1.000  C
  C35      1.0000 0.31071  0.53871  0.88612  Biso   1.000  C
  C36      1.0000 0.39007  0.42641  0.85974  Biso   1.000  C
  N19      1.0000 0.21120  0.55219  0.81755  Biso   1.000  N
  N20      1.0000 0.21123  0.55219  0.81763  Biso   1.000  N
  O12      1.0000 0.07619  0.49418  0.71840  Biso   1.000  O
  C37      1.0000 0.91355  0.72460  0.85856  Biso   1.000  C
  C38      1.0000 0.91351  0.72460  0.85864  Biso   1.000  C
  H35      1.0000 0.87784  0.77331  0.01675  Biso   1.000  H
  H36      1.0000 0.87786  0.77331  0.01683  Biso   1.000  H
  N21      1.0000 0.97867  0.70758  0.10364  Biso   1.000  N
  O13      1.0000 0.02487  0.65579  0.25629  Biso   1.000  O
  N22      1.0000 0.32694  0.55692  0.98808  Biso   1.000  N
  O14      1.0000 0.34816  0.50607  0.13689  Biso   1.000  O
  C39      1.0000 0.38757  0.57080  0.85191  Biso   1.000  C
  C40      1.0000 0.38750  0.57080  0.85191  Biso   1.000  C
  H37      1.0000 0.37654  0.43532  0.79110  Biso   1.000  H
  H38      1.0000 0.45295  0.44402  0.89839  Biso   1.000  H
  H39      1.0000 0.38954  0.37919  0.86994  Biso   1.000  H
  C41      1.0000 0.17482  0.61708  0.77603  Biso   1.000  C
  H40      1.0000 0.91610  0.77261  0.86669  Biso   1.000  H
  H41      1.0000 0.86961  0.71490  0.79192  Biso   1.000  H
  N23      1.0000 0.00865  0.70082  0.87038  Biso   1.000  N
  C42      1.0000 0.07215  0.73410  0.11051  Biso   1.000  C
  C43      1.0000 0.32638  0.62459  0.02429  Biso   1.000  C
  H42      1.0000 0.45123  0.55598  0.89336  Biso   1.000  H
  H43      1.0000 0.37581  0.55821  0.78482  Biso   1.000  H
  H44      1.0000 0.38375  0.61832  0.85612  Biso   1.000  H
  H45      1.0000 0.45126  0.55598  0.89344  Biso   1.000  H
  H46      1.0000 0.12914  0.61101  0.70909  Biso   1.000  H
  H47      1.0000 0.22912  0.64320  0.77248  Biso   1.000  H
  N24      1.0000 0.12705  0.65459  0.83100  Biso   1.000  N
  C44      1.0000 0.09804  0.72510  0.94708  Biso   1.000  C
  C45      1.0000 0.02717  0.66300  0.80071  Biso   1.000  C
  C46      1.0000 0.02710  0.66300  0.80071  Biso   1.000  C
  H48      1.0000 0.11729  0.72962  0.17805  Biso   1.000  H
  N25      1.0000 0.11450  0.70171  0.04490  Biso   1.000  N
  H49      1.0000 0.06494  0.78122  0.09500  Biso   1.000  H
  H50      1.0000 0.11725  0.72962  0.17812  Biso   1.000  H
  N26      1.0000 0.11444  0.70171  0.04490  Biso   1.000  N
  H51      1.0000 0.35973  0.65360  0.99318  Biso   1.000  H
  H52      1.0000 0.36279  0.62539  0.09485  Biso   1.000  H
  H53      1.0000 0.36275  0.62539  0.09492  Biso   1.000  H
  N27      1.0000 0.22978  0.65046  0.00574  Biso   1.000  N
  C47      1.0000 0.17991  0.69151  0.92011  Biso   1.000  C
  H54      1.0000 0.10254  0.77381  0.94538  Biso   1.000  H
  O15      1.0000 0.96662  0.64200  0.72372  Biso   1.000  O
  C48      1.0000 0.19466  0.66230  0.08081  Biso   1.000  C
  H55      1.0000 0.22390  0.72440  0.90858  Biso   1.000  H
  O16      1.0000 0.22996  0.64031  0.16475  Biso   1.000  O
  O17      1.0000 0.22999  0.64031  0.16482  Biso   1.000  O
  C49      1.0000 0.33340  0.11742  0.54041  Biso   1.000  C
  N28      1.0000 0.33000  0.05304  0.49511  Biso   1.000  N
  N29      1.0000 0.23782  0.14514  0.52452  Biso   1.000  N
  H56      1.0000 0.36910  0.14788  0.51418  Biso   1.000  H
  H57      1.0000 0.36904  0.11339  0.61089  Biso   1.000  H
  C50      1.0000 0.31269  0.04100  0.39108  Biso   1.000  C
  C51      1.0000 0.33504  0.99721  0.54750  Biso   1.000  C
  C52      1.0000 0.19146  0.19151  0.44472  Biso   1.000  C
  C53      1.0000 0.20298  0.15260  0.60077  Biso   1.000  C
  N30      1.0000 0.21321  0.05777  0.32584  Biso   1.000  N
  C54      1.0000 0.39000  0.07359  0.35968  Biso   1.000  C
  C55      1.0000 0.31073  0.96129  0.38613  Biso   1.000  C
  N31      1.0000 0.32689  0.94308  0.48809  Biso   1.000  N
  O18      1.0000 0.34824  0.99393  0.63690  Biso   1.000  O
  N32      1.0000 0.13460  0.16002  0.34993  Biso   1.000  N
  H58      1.0000 0.23813  0.22400  0.43733  Biso   1.000  H
  C56      1.0000 0.11279  0.22500  0.47709  Biso   1.000  C
  N33      1.0000 0.12629  0.19509  0.57077  Biso   1.000  N
  O19      1.0000 0.23604  0.12499  0.68109  Biso   1.000  O
  C57      1.0000 0.18028  0.12489  0.29082  Biso   1.000  C
  C58      1.0000 0.15850  0.00398  0.28047  Biso   1.000  C
  H59      1.0000 0.37649  0.06468  0.29111  Biso   1.000  H
  H60      1.0000 0.45290  0.05598  0.39840  Biso   1.000  H
  H61      1.0000 0.38953  0.12081  0.36988  Biso   1.000  H
  N34      1.0000 0.21125  0.94781  0.31764  Biso   1.000  N
  C59      1.0000 0.38752  0.92920  0.35192  Biso   1.000  C
  C60      1.0000 0.32639  0.87541  0.52430  Biso   1.000  C
  C61      1.0000 0.03667  0.17191  0.32207  Biso   1.000  C
  N35      1.0000 0.02130  0.20758  0.39640  Biso   1.000  N
  H62      1.0000 0.12211  0.27331  0.48322  Biso   1.000  H
  C62      1.0000 0.08653  0.22460  0.64141  Biso   1.000  C
  H63      1.0000 0.23582  0.15061  0.28978  Biso   1.000  H
  H64      1.0000 0.13424  0.12210  0.22343  Biso   1.000  H
  O20      1.0000 0.07621  0.00582  0.21841  Biso   1.000  O
  C63      1.0000 0.17483  0.88292  0.27604  Biso   1.000  C
  H65      1.0000 0.37583  0.94179  0.28483  Biso   1.000  H
  H66      1.0000 0.38370  0.88168  0.35613  Biso   1.000  H
  H67      1.0000 0.45118  0.94402  0.39337  Biso   1.000  H
  H68      1.0000 0.35968  0.84640  0.49319  Biso   1.000  H
  H69      1.0000 0.36283  0.87461  0.59493  Biso   1.000  H
  N36      1.0000 0.22984  0.84954  0.50568  Biso   1.000  N
  O21      1.0000 0.97507  0.15579  0.24368  Biso   1.000  O
  C64      1.0000 0.92783  0.23410  0.38953  Biso   1.000  C
  H70      1.0000 0.08392  0.27261  0.63328  Biso   1.000  H
  H71      1.0000 0.13043  0.21490  0.70813  Biso   1.000  H
  N37      1.0000 0.99143  0.20082  0.62959  Biso   1.000  N
  H72      1.0000 0.12908  0.88899  0.20910  Biso   1.000  H
  H73      1.0000 0.22914  0.85680  0.27249  Biso   1.000  H
  N38      1.0000 0.12700  0.84541  0.33101  Biso   1.000  N
  C65      1.0000 0.17993  0.80849  0.42012  Biso   1.000  C
  C66      1.0000 0.19474  0.83770  0.58082  Biso   1.000  C
  H74      1.0000 0.93501  0.28122  0.40497  Biso   1.000  H
  H75      1.0000 0.88273  0.22962  0.32192  Biso   1.000  H
  N39      1.0000 0.88554  0.20171  0.45514  Biso   1.000  N
  C67      1.0000 0.90205  0.22510  0.55289  Biso   1.000  C
  C68      1.0000 0.97294  0.16300  0.69934  Biso   1.000  C
  C69      1.0000 0.02712  0.83700  0.30072  Biso   1.000  C
  C70      1.0000 0.09799  0.77490  0.44709  Biso   1.000  C
  H76      1.0000 0.22391  0.77560  0.40859  Biso   1.000  H
  N40      1.0000 0.11452  0.79829  0.54491  Biso   1.000  N
  O22      1.0000 0.23000  0.85969  0.66483  Biso   1.000  O
  C71      1.0000 0.80532  0.16230  0.41923  Biso   1.000  C
  H77      1.0000 0.89754  0.27381  0.55459  Biso   1.000  H
  C72      1.0000 0.82013  0.19151  0.57994  Biso   1.000  C
  O23      1.0000 0.03343  0.14200  0.77633  Biso   1.000  O
  N41      1.0000 0.87306  0.15459  0.66904  Biso   1.000  N
  O24      1.0000 0.96663  0.85800  0.22373  Biso   1.000  O
  N42      1.0000 0.00860  0.79918  0.37039  Biso   1.000  N
  H78      1.0000 0.10249  0.72619  0.44539  Biso   1.000  H
  C73      1.0000 0.07223  0.76590  0.61052  Biso   1.000  C
  N43      1.0000 0.77020  0.15046  0.49430  Biso   1.000  N
  O25      1.0000 0.76999  0.14031  0.33522  Biso   1.000  O
  H79      1.0000 0.77612  0.22440  0.59139  Biso   1.000  H
  C74      1.0000 0.82523  0.11708  0.72401  Biso   1.000  C
  C75      1.0000 0.91350  0.77540  0.35857  Biso   1.000  C
  N44      1.0000 0.97873  0.79242  0.60358  Biso   1.000  N
  H80      1.0000 0.06502  0.71878  0.59501  Biso   1.000  H
  H81      1.0000 0.11733  0.77038  0.67813  Biso   1.000  H
  C76      1.0000 0.67364  0.12459  0.47568  Biso   1.000  C
  H82      1.0000 0.87095  0.11101  0.79088  Biso   1.000  H
  H83      1.0000 0.77089  0.14320  0.72749  Biso   1.000  H
  N45      1.0000 0.78881  0.05219  0.68242  Biso   1.000  N
  H84      1.0000 0.91612  0.72739  0.36670  Biso   1.000  H
  H85      1.0000 0.86963  0.78510  0.29193  Biso   1.000  H
  N46      1.0000 0.87375  0.80491  0.42921  Biso   1.000  N
  C77      1.0000 0.88725  0.77500  0.52289  Biso   1.000  C
  C78      1.0000 0.96330  0.82809  0.67791  Biso   1.000  C
  H86      1.0000 0.64028  0.15360  0.50679  Biso   1.000  H
  H87      1.0000 0.63723  0.12539  0.40512  Biso   1.000  H
  N47      1.0000 0.67314  0.05692  0.51189  Biso   1.000  N
  C79      1.0000 0.68933  0.03871  0.61392  Biso   1.000  C
  C80      1.0000 0.84153  0.99602  0.71951  Biso   1.000  C
  C81      1.0000 0.79698  0.84740  0.39921  Biso   1.000  C
  C82      1.0000 0.80860  0.80849  0.55533  Biso   1.000  C
  H88      1.0000 0.87795  0.72669  0.51684  Biso   1.000  H
  N48      1.0000 0.86546  0.83998  0.65013  Biso   1.000  N
  O26      1.0000 0.02496  0.84421  0.75630  Biso   1.000  O
  C83      1.0000 0.66500  0.00279  0.45248  Biso   1.000  C
  C84      1.0000 0.68734  0.95900  0.60890  Biso   1.000  C
  C85      1.0000 0.61254  0.07080  0.64813  Biso   1.000  C
  N49      1.0000 0.78685  0.94223  0.67421  Biso   1.000  N
  O27      1.0000 0.92385  0.99418  0.78165  Biso   1.000  O
  N50      1.0000 0.76224  0.85486  0.47553  Biso   1.000  N
  O28      1.0000 0.76399  0.87501  0.31889  Biso   1.000  O
  H89      1.0000 0.76193  0.77600  0.56272  Biso   1.000  H
  C86      1.0000 0.81971  0.87511  0.70924  Biso   1.000  C
  N51      1.0000 0.67006  0.94696  0.50494  Biso   1.000  N
  O29      1.0000 0.65179  0.00607  0.36308  Biso   1.000  O
  C87      1.0000 0.61004  0.92641  0.64030  Biso   1.000  C
  H90      1.0000 0.62423  0.05821  0.71522  Biso   1.000  H
  H91      1.0000 0.61636  0.11832  0.64392  Biso   1.000  H
  H92      1.0000 0.54885  0.05598  0.60661  Biso   1.000  H
  C88      1.0000 0.66663  0.88258  0.45957  Biso   1.000  C
  H93      1.0000 0.76421  0.84939  0.71020  Biso   1.000  H
  H94      1.0000 0.86582  0.87790  0.77662  Biso   1.000  H
  H95      1.0000 0.62357  0.93532  0.70894  Biso   1.000  H
  H96      1.0000 0.54713  0.94402  0.60158  Biso   1.000  H
  H97      1.0000 0.61050  0.87919  0.63010  Biso   1.000  H
  H98      1.0000 0.63093  0.85212  0.48580  Biso   1.000  H
  H99      1.0000 0.63099  0.88661  0.38909  Biso   1.000  H
