data_image0
_cell_length_a       12.199
_cell_length_b       12.238
_cell_length_c       26.488
_cell_angle_alpha    88.94
_cell_angle_beta     85.61
_cell_angle_gamma    84.5

_symmetry_space_group_name_H-M    "P 1"
_symmetry_int_tables_number       1

loop_
  _symmetry_equiv_pos_as_xyz
  'x, y, z'

loop_
  _atom_site_label
  _atom_site_occupancy
  _atom_site_fract_x
  _atom_site_fract_y
  _atom_site_fract_z
  _atom_site_thermal_displace_type
  _atom_site_B_iso_or_equiv
  _atom_site_type_symbol
  N1       1.0000 0.86388  0.13815  0.84215  Biso   1.000  N
  C1       1.0000 0.82662  0.03497  0.82814  Biso   1.000  C
  C2       1.0000 0.82670  0.03505  0.82810  Biso   1.000  C
  C3       1.0000 0.82661  0.03505  0.82814  Biso   1.000  C
  C4       1.0000 0.82671  0.03497  0.82810  Biso   1.000  C
  C5       1.0000 0.79375  0.23101  0.86169  Biso   1.000  C
  C6       1.0000 0.79384  0.23101  0.86165  Biso   1.000  C
  C7       1.0000 0.97727  0.13519  0.83882  Biso   1.000  C
  C8       1.0000 0.97726  0.13527  0.83885  Biso   1.000  C
  N2       1.0000 0.78074  0.97058  0.86968  Biso   1.000  N
  N3       1.0000 0.78083  0.97058  0.86964  Biso   1.000  N
  C9       1.0000 0.93534  0.96481  0.81038  Biso   1.000  C
  C10      1.0000 0.93526  0.96481  0.81034  Biso   1.000  C
  C11      1.0000 0.93527  0.96472  0.81038  Biso   1.000  C
  N4       1.0000 0.86380  0.13806  0.84219  Biso   1.000  N
  H1       1.0000 0.77646  0.04524  0.80091  Biso   1.000  H
  N5       1.0000 0.86387  0.13814  0.84219  Biso   1.000  N
  H2       1.0000 0.77647  0.04516  0.80091  Biso   1.000  H
  N6       1.0000 0.86389  0.13806  0.84215  Biso   1.000  N
  N7       1.0000 0.75783  0.22158  0.91504  Biso   1.000  N
  N8       1.0000 0.75792  0.22150  0.91504  Biso   1.000  N
  H3       1.0000 0.83292  0.29615  0.85661  Biso   1.000  H
  H4       1.0000 0.83301  0.29606  0.85661  Biso   1.000  H
  H5       1.0000 0.72912  0.24100  0.84230  Biso   1.000  H
  N9       1.0000 0.02008  0.03470  0.82235  Biso   1.000  N
  O1       1.0000 0.02947  0.21171  0.84844  Biso   1.000  O
  O2       1.0000 0.02948  0.21163  0.84840  Biso   1.000  O
  C12      1.0000 0.66740  0.99100  0.89069  Biso   1.000  C
  C13      1.0000 0.66733  0.99092  0.89069  Biso   1.000  C
  C14      1.0000 0.83739  0.86732  0.87267  Biso   1.000  C
  N10      1.0000 0.93124  0.86620  0.84132  Biso   1.000  N
  H6       1.0000 0.93898  0.94870  0.77410  Biso   1.000  H
  C15      1.0000 0.65368  0.18012  0.93189  Biso   1.000  C
  C16      1.0000 0.65368  0.18012  0.93193  Biso   1.000  C
  C17      1.0000 0.79678  0.28357  0.95162  Biso   1.000  C
  C18      1.0000 0.13648  0.00822  0.80758  Biso   1.000  C
  C19      1.0000 0.13657  0.00822  0.80758  Biso   1.000  C
  N11      1.0000 0.65434  0.06153  0.93394  Biso   1.000  N
  N12      1.0000 0.65434  0.06153  0.93390  Biso   1.000  N
  N13      1.0000 0.65443  0.06145  0.93390  Biso   1.000  N
  H7       1.0000 0.62267  0.02390  0.86460  Biso   1.000  H
  H8       1.0000 0.63970  0.92132  0.90043  Biso   1.000  H
  H9       1.0000 0.63970  0.92132  0.90039  Biso   1.000  H
  H10      1.0000 0.63962  0.92124  0.90043  Biso   1.000  H
  H11      1.0000 0.62259  0.02390  0.86460  Biso   1.000  H
  O3       1.0000 0.80834  0.79164  0.89937  Biso   1.000  O
  O4       1.0000 0.80834  0.79156  0.89940  Biso   1.000  O
  O5       1.0000 0.80843  0.79156  0.89937  Biso   1.000  O
  C20      1.0000 0.00432  0.76678  0.83151  Biso   1.000  C
  C21      1.0000 0.00440  0.76678  0.83147  Biso   1.000  C
  C22      1.0000 0.63785  0.21314  0.98835  Biso   1.000  C
  C23      1.0000 0.63794  0.21306  0.98835  Biso   1.000  C
  H12      1.0000 0.59320  0.21383  0.91281  Biso   1.000  H
  H13      1.0000 0.59329  0.21375  0.91281  Biso   1.000  H
  N14      1.0000 0.73251  0.27199  0.99532  Biso   1.000  N
  N15      1.0000 0.73260  0.27200  0.99528  Biso   1.000  N
  N16      1.0000 0.73259  0.27208  0.99532  Biso   1.000  N
  O6       1.0000 0.87553  0.33806  0.94541  Biso   1.000  O
  O7       1.0000 0.87562  0.33806  0.94537  Biso   1.000  O
  H14      1.0000 0.14407  0.97587  0.77422  Biso   1.000  H
  N17      1.0000 0.19212  0.93308  0.84234  Biso   1.000  N
  H15      1.0000 0.14407  0.97595  0.77418  Biso   1.000  H
  N18      1.0000 0.19203  0.93316  0.84234  Biso   1.000  N
  N19      1.0000 0.19203  0.93308  0.84234  Biso   1.000  N
  H16      1.0000 0.14408  0.97587  0.77418  Biso   1.000  H
  H17      1.0000 0.17259  0.07550  0.80542  Biso   1.000  H
  H18      1.0000 0.17268  0.07550  0.80538  Biso   1.000  H
  H19      1.0000 0.17267  0.07550  0.80542  Biso   1.000  H
  C24      1.0000 0.64011  0.02201  0.98271  Biso   1.000  C
  H20      1.0000 0.96527  0.70405  0.84230  Biso   1.000  H
  H21      1.0000 0.02228  0.76101  0.79531  Biso   1.000  H
  N20      1.0000 0.10642  0.76149  0.85650  Biso   1.000  N
  N21      1.0000 0.10634  0.76149  0.85650  Biso   1.000  N
  H22      1.0000 0.02229  0.76093  0.79531  Biso   1.000  H
  N22      1.0000 0.63701  0.10865  0.01490  Biso   1.000  N
  H23      1.0000 0.56858  0.25943  0.99558  Biso   1.000  H
  C25      1.0000 0.74016  0.34094  0.03962  Biso   1.000  C
  C26      1.0000 0.20584  0.81301  0.83764  Biso   1.000  C
  C27      1.0000 0.20576  0.81293  0.83764  Biso   1.000  C
  C28      1.0000 0.25910  0.97093  0.87562  Biso   1.000  C
  C29      1.0000 0.25902  0.97085  0.87562  Biso   1.000  C
  O8       1.0000 0.63030  0.92650  0.99441  Biso   1.000  O
  C30      1.0000 0.11775  0.70768  0.90183  Biso   1.000  C
  C31      1.0000 0.60017  0.10094  0.06836  Biso   1.000  C
  H24      1.0000 0.78975  0.39650  0.03023  Biso   1.000  H
  H25      1.0000 0.66792  0.37831  0.04871  Biso   1.000  H
  H26      1.0000 0.66793  0.37823  0.04871  Biso   1.000  H
  N23      1.0000 0.77872  0.28183  0.08347  Biso   1.000  N
  H27      1.0000 0.78975  0.39650  0.03019  Biso   1.000  H
  C32      1.0000 0.28909  0.77743  0.87960  Biso   1.000  C
  C33      1.0000 0.24467  0.77746  0.78387  Biso   1.000  C
  C34      1.0000 0.24467  0.77755  0.78384  Biso   1.000  C
  C35      1.0000 0.28902  0.77735  0.87960  Biso   1.000  C
  C36      1.0000 0.24467  0.77747  0.78384  Biso   1.000  C
  N24      1.0000 0.31448  0.88403  0.89800  Biso   1.000  N
  O9       1.0000 0.26834  0.06736  0.88361  Biso   1.000  O
  O10      1.0000 0.26834  0.06744  0.88358  Biso   1.000  O
  O11      1.0000 0.26833  0.06744  0.88361  Biso   1.000  O
  O12      1.0000 0.26843  0.06736  0.88358  Biso   1.000  O
  N25      1.0000 0.22144  0.71816  0.91652  Biso   1.000  N
  O13      1.0000 0.04707  0.65639  0.92470  Biso   1.000  O
  N26      1.0000 0.22144  0.71808  0.91656  Biso   1.000  N
  N27      1.0000 0.22153  0.71808  0.91652  Biso   1.000  N
  H28      1.0000 0.53865  0.15601  0.07571  Biso   1.000  H
  N28      1.0000 0.68569  0.11588  0.10203  Biso   1.000  N
  H29      1.0000 0.57370  0.02952  0.07510  Biso   1.000  H
  N29      1.0000 0.68568  0.11597  0.10199  Biso   1.000  N
  H30      1.0000 0.57371  0.02944  0.07510  Biso   1.000  H
  H31      1.0000 0.53866  0.15593  0.07571  Biso   1.000  H
  N30      1.0000 0.68561  0.11588  0.10199  Biso   1.000  N
  C37      1.0000 0.71107  0.22256  0.12039  Biso   1.000  C
  C38      1.0000 0.88242  0.29222  0.09820  Biso   1.000  C
  C39      1.0000 0.88233  0.29231  0.09816  Biso   1.000  C
  C40      1.0000 0.39483  0.70755  0.86040  Biso   1.000  C
  H32      1.0000 0.31449  0.80511  0.77441  Biso   1.000  H
  H33      1.0000 0.25274  0.69886  0.78228  Biso   1.000  H
  H34      1.0000 0.25274  0.69878  0.78232  Biso   1.000  H
  H35      1.0000 0.31442  0.80503  0.77441  Biso   1.000  H
  H36      1.0000 0.19135  0.80626  0.76100  Biso   1.000  H
  H37      1.0000 0.25283  0.69878  0.78228  Biso   1.000  H
  C41      1.0000 0.39998  0.89913  0.93163  Biso   1.000  C
  C42      1.0000 0.39999  0.89905  0.93167  Biso   1.000  C
  C43      1.0000 0.25999  0.65905  0.96041  Biso   1.000  C
  C44      1.0000 0.26000  0.65905  0.96037  Biso   1.000  C
  C45      1.0000 0.74106  0.02906  0.12441  Biso   1.000  C
  C46      1.0000 0.74105  0.02914  0.12441  Biso   1.000  C
  C47      1.0000 0.60525  0.29236  0.13963  Biso   1.000  C
  C48      1.0000 0.79440  0.18706  0.16235  Biso   1.000  C
  C49      1.0000 0.60533  0.29245  0.13959  Biso   1.000  C
  C50      1.0000 0.79440  0.18698  0.16239  Biso   1.000  C
  C51      1.0000 0.79433  0.18698  0.16235  Biso   1.000  C
  C52      1.0000 0.60526  0.29236  0.13959  Biso   1.000  C
  N31      1.0000 0.89374  0.23850  0.14353  Biso   1.000  N
  N32      1.0000 0.89383  0.23850  0.14349  Biso   1.000  N
  N33      1.0000 0.89382  0.23850  0.14353  Biso   1.000  N
  N34      1.0000 0.89374  0.23850  0.14349  Biso   1.000  N
  O14      1.0000 0.95308  0.34368  0.07533  Biso   1.000  O
  O15      1.0000 0.95309  0.34368  0.07529  Biso   1.000  O
  O16      1.0000 0.95309  0.34360  0.07533  Biso   1.000  O
  O17      1.0000 0.95300  0.34368  0.07529  Biso   1.000  O
  H38      1.0000 0.44255  0.69473  0.88751  Biso   1.000  H
  H39      1.0000 0.43208  0.74572  0.83321  Biso   1.000  H
  H40      1.0000 0.37631  0.63855  0.84851  Biso   1.000  H
  H41      1.0000 0.46151  0.84398  0.92432  Biso   1.000  H
  H42      1.0000 0.42645  0.97055  0.92489  Biso   1.000  H
  H43      1.0000 0.46142  0.84406  0.92428  Biso   1.000  H
  N35      1.0000 0.36316  0.89134  0.98510  Biso   1.000  N
  H44      1.0000 0.42646  0.97047  0.92493  Biso   1.000  H
  H45      1.0000 0.46143  0.84398  0.92432  Biso   1.000  H
  N36      1.0000 0.36316  0.89126  0.98513  Biso   1.000  N
  H46      1.0000 0.42654  0.97047  0.92489  Biso   1.000  H
  H47      1.0000 0.46151  0.84398  0.92428  Biso   1.000  H
  N37      1.0000 0.36325  0.89126  0.98510  Biso   1.000  N
  H48      1.0000 0.33232  0.62168  0.95132  Biso   1.000  H
  H49      1.0000 0.21041  0.60350  0.96980  Biso   1.000  H
  H50      1.0000 0.33223  0.62176  0.95128  Biso   1.000  H
  H51      1.0000 0.21033  0.60350  0.96980  Biso   1.000  H
  H52      1.0000 0.33224  0.62168  0.95132  Biso   1.000  H
  H53      1.0000 0.33232  0.62168  0.95128  Biso   1.000  H
  N38      1.0000 0.26757  0.72791  0.00471  Biso   1.000  N
  O18      1.0000 0.73174  0.93255  0.11642  Biso   1.000  O
  O19      1.0000 0.73182  0.93263  0.11642  Biso   1.000  O
  N39      1.0000 0.80804  0.06691  0.15769  Biso   1.000  N
  N40      1.0000 0.80813  0.06691  0.15765  Biso   1.000  N
  N41      1.0000 0.80813  0.06683  0.15769  Biso   1.000  N
  N42      1.0000 0.80805  0.06691  0.15765  Biso   1.000  N
  C53      1.0000 0.75550  0.22244  0.21616  Biso   1.000  C
  C54      1.0000 0.75541  0.22253  0.21616  Biso   1.000  C
  H54      1.0000 0.62386  0.36136  0.15152  Biso   1.000  H
  H55      1.0000 0.55754  0.30517  0.11252  Biso   1.000  H
  H56      1.0000 0.56809  0.25419  0.16682  Biso   1.000  H
  H57      1.0000 0.62394  0.36144  0.15148  Biso   1.000  H
  H58      1.0000 0.55761  0.30526  0.11252  Biso   1.000  H
  H59      1.0000 0.56809  0.25427  0.16678  Biso   1.000  H
  H60      1.0000 0.55762  0.30517  0.11252  Biso   1.000  H
  H61      1.0000 0.62386  0.36136  0.15148  Biso   1.000  H
  H62      1.0000 0.56801  0.25419  0.16678  Biso   1.000  H
  C55      1.0000 0.99576  0.23321  0.16852  Biso   1.000  C
  C56      1.0000 0.99577  0.23313  0.16852  Biso   1.000  C
  C57      1.0000 0.36223  0.78685  0.01168  Biso   1.000  C
  C58      1.0000 0.36231  0.78693  0.01164  Biso   1.000  C
  C59      1.0000 0.35996  0.97798  0.01732  Biso   1.000  C
  C60      1.0000 0.35997  0.97798  0.01728  Biso   1.000  C
  C61      1.0000 0.36005  0.97798  0.01728  Biso   1.000  C
  C62      1.0000 0.20337  0.71651  0.04841  Biso   1.000  C
  C63      1.0000 0.20337  0.71651  0.04837  Biso   1.000  C
  C64      1.0000 0.86359  0.99177  0.19245  Biso   1.000  C
  C65      1.0000 0.86360  0.99177  0.19241  Biso   1.000  C
  H63      1.0000 0.74743  0.30113  0.21771  Biso   1.000  H
  H64      1.0000 0.80881  0.19365  0.23903  Biso   1.000  H
  H65      1.0000 0.68567  0.19488  0.22558  Biso   1.000  H
  H66      1.0000 0.80873  0.19373  0.23899  Biso   1.000  H
  H67      1.0000 0.97787  0.23898  0.20472  Biso   1.000  H
  H68      1.0000 0.97788  0.23898  0.20468  Biso   1.000  H
  H69      1.0000 0.03488  0.29603  0.15773  Biso   1.000  H
  H70      1.0000 0.03488  0.29603  0.15769  Biso   1.000  H
  N43      1.0000 0.06892  0.13379  0.15871  Biso   1.000  N
  H71      1.0000 0.03488  0.29594  0.15773  Biso   1.000  H
  C66      1.0000 0.34648  0.81987  0.06810  Biso   1.000  C
  H72      1.0000 0.43150  0.74056  0.00441  Biso   1.000  H
  H73      1.0000 0.43158  0.74056  0.00441  Biso   1.000  H
  N44      1.0000 0.34574  0.93846  0.06609  Biso   1.000  N
  N45      1.0000 0.34582  0.93846  0.06609  Biso   1.000  N
  O20      1.0000 0.36986  0.07350  0.00558  Biso   1.000  O
  N46      1.0000 0.24223  0.77850  0.08499  Biso   1.000  N
  N47      1.0000 0.24225  0.77841  0.08495  Biso   1.000  N
  N48      1.0000 0.24232  0.77850  0.08495  Biso   1.000  N
  O21      1.0000 0.12462  0.66193  0.05462  Biso   1.000  O
  H74      1.0000 0.82748  0.92449  0.19461  Biso   1.000  H
  N49      1.0000 0.98007  0.96529  0.17768  Biso   1.000  N
  N50      1.0000 0.98009  0.96521  0.17765  Biso   1.000  N
  N51      1.0000 0.98016  0.96529  0.17765  Biso   1.000  N
  H75      1.0000 0.85608  0.02412  0.22581  Biso   1.000  H
  H76      1.0000 0.85609  0.02404  0.22581  Biso   1.000  H
  H77      1.0000 0.85600  0.02412  0.22581  Biso   1.000  H
  C67      1.0000 0.06482  0.03519  0.18965  Biso   1.000  C
  C68      1.0000 0.06489  0.03527  0.18965  Biso   1.000  C
  C69      1.0000 0.06490  0.03519  0.18965  Biso   1.000  C
  C70      1.0000 0.16278  0.13267  0.12732  Biso   1.000  C
  C71      1.0000 0.16278  0.13259  0.12732  Biso   1.000  C
  H78      1.0000 0.40687  0.78616  0.08722  Biso   1.000  H
  H79      1.0000 0.40688  0.78616  0.08718  Biso   1.000  H
  C72      1.0000 0.33275  0.00899  0.10933  Biso   1.000  C
  C73      1.0000 0.20632  0.76899  0.13834  Biso   1.000  C
  C74      1.0000 0.20641  0.76899  0.13834  Biso   1.000  C
  C75      1.0000 0.02289  0.86480  0.16117  Biso   1.000  C
  C76      1.0000 0.17346  0.96502  0.17189  Biso   1.000  C
  C77      1.0000 0.17346  0.96494  0.17189  Biso   1.000  C
  C78      1.0000 0.17354  0.96502  0.17189  Biso   1.000  C
  H80      1.0000 0.06118  0.05129  0.22589  Biso   1.000  H
  N52      1.0000 0.21934  0.02941  0.13035  Biso   1.000  N
  O22      1.0000 0.19173  0.20843  0.10063  Biso   1.000  O
  N53      1.0000 0.21942  0.02941  0.13035  Biso   1.000  N
  O23      1.0000 0.19182  0.20835  0.10063  Biso   1.000  O
  H81      1.0000 0.37750  0.97601  0.13539  Biso   1.000  H
  H82      1.0000 0.37749  0.97609  0.13539  Biso   1.000  H
  H83      1.0000 0.36046  0.07867  0.09960  Biso   1.000  H
  H84      1.0000 0.36045  0.07875  0.09960  Biso   1.000  H
  N54      1.0000 0.13628  0.86185  0.15784  Biso   1.000  N
  H85      1.0000 0.27104  0.75899  0.15773  Biso   1.000  H
  H86      1.0000 0.16715  0.70385  0.14341  Biso   1.000  H
  H87      1.0000 0.27105  0.75891  0.15769  Biso   1.000  H
  H88      1.0000 0.16723  0.70393  0.14341  Biso   1.000  H
  H89      1.0000 0.27112  0.75899  0.15769  Biso   1.000  H
  O24      1.0000 0.97060  0.78836  0.15159  Biso   1.000  O
  O25      1.0000 0.97068  0.78836  0.15159  Biso   1.000  O
  H90      1.0000 0.22369  0.95483  0.19912  Biso   1.000  H
  H91      1.0000 0.22370  0.95475  0.19908  Biso   1.000  H
  H92      1.0000 0.22369  0.95475  0.19912  Biso   1.000  H
  H93      1.0000 0.22369  0.95483  0.19908  Biso   1.000  H
  O26      1.0000 0.32343  0.37181  0.55800  Biso   1.000  O
  C79      1.0000 0.27237  0.29251  0.55103  Biso   1.000  C
  N55      1.0000 0.27413  0.23671  0.50665  Biso   1.000  N
  N56      1.0000 0.20373  0.24444  0.58689  Biso   1.000  N
  C80      1.0000 0.35108  0.25508  0.46360  Biso   1.000  C
  C81      1.0000 0.21402  0.13929  0.51233  Biso   1.000  C
  C82      1.0000 0.16776  0.14318  0.56845  Biso   1.000  C
  C83      1.0000 0.20043  0.27023  0.64017  Biso   1.000  C
  N57      1.0000 0.30116  0.30939  0.42130  Biso   1.000  N
  H94      1.0000 0.40713  0.29890  0.47439  Biso   1.000  H
  H95      1.0000 0.38771  0.18483  0.45250  Biso   1.000  H
  N58      1.0000 0.11600  0.14251  0.48469  Biso   1.000  N
  H96      1.0000 0.26304  0.07223  0.50529  Biso   1.000  H
  N59      1.0000 0.04985  0.14498  0.56512  Biso   1.000  N
  H97      1.0000 0.19681  0.07901  0.58761  Biso   1.000  H
  H98      1.0000 0.26095  0.31361  0.64551  Biso   1.000  H
  H99      1.0000 0.21188  0.20228  0.65941  Biso   1.000  H
  N60      1.0000 0.09860  0.32928  0.65941  Biso   1.000  N
  C84      1.0000 0.24655  0.25341  0.38374  Biso   1.000  C
  C85      1.0000 0.31572  0.41709  0.40801  Biso   1.000  C
  C86      1.0000 0.11962  0.12593  0.43058  Biso   1.000  C
  C87      1.0000 0.02216  0.13920  0.51608  Biso   1.000  C
  C88      1.0000 0.97111  0.13745  0.60821  Biso   1.000  C
  C89      1.0000 0.08959  0.44113  0.66422  Biso   1.000  C
  C90      1.0000 0.99645  0.27994  0.67618  Biso   1.000  C
  C91      1.0000 0.22317  0.34364  0.34299  Biso   1.000  C
  H100     1.0000 0.29375  0.19039  0.36950  Biso   1.000  H
  N61      1.0000 0.13786  0.22369  0.40093  Biso   1.000  N
  N62      1.0000 0.26506  0.44001  0.36321  Biso   1.000  N
  O27      1.0000 0.36494  0.47867  0.43088  Biso   1.000  O
  H101     1.0000 0.17823  0.06903  0.42111  Biso   1.000  H
  H102     1.0000 0.05043  0.10003  0.42240  Biso   1.000  H
  O28      1.0000 0.92871  0.13049  0.50290  Biso   1.000  O
  H103     1.0000 0.00218  0.08424  0.63210  Biso   1.000  H
  H104     1.0000 0.90512  0.10997  0.59700  Biso   1.000  H
  N63      1.0000 0.93997  0.24074  0.63426  Biso   1.000  N
  O29      1.0000 0.16423  0.49992  0.65361  Biso   1.000  O
  N64      1.0000 0.98615  0.47479  0.68413  Biso   1.000  N
  C92      1.0000 0.01819  0.19178  0.71624  Biso   1.000  C
  C93      1.0000 0.91697  0.38465  0.69477  Biso   1.000  C
  H105     1.0000 0.26103  0.32310  0.31009  Biso   1.000  H
  N65      1.0000 0.10521  0.35009  0.34125  Biso   1.000  N
  C94      1.0000 0.05721  0.27542  0.37336  Biso   1.000  C
  C95      1.0000 0.27253  0.54133  0.33561  Biso   1.000  C
  C96      1.0000 0.84174  0.30002  0.62722  Biso   1.000  C
  C97      1.0000 0.95506  0.58908  0.69701  Biso   1.000  C
  H106     1.0000 0.07133  0.13515  0.70250  Biso   1.000  H
  H107     1.0000 0.04635  0.22359  0.74491  Biso   1.000  H
  H108     1.0000 0.95054  0.16091  0.72681  Biso   1.000  H
  N66      1.0000 0.82748  0.38490  0.66096  Biso   1.000  N
  C98      1.0000 0.87325  0.38133  0.75013  Biso   1.000  C
  C99      1.0000 0.04505  0.41094  0.30301  Biso   1.000  C
  O30      1.0000 0.96003  0.25941  0.37700  Biso   1.000  O
  H109     1.0000 0.29246  0.52479  0.30021  Biso   1.000  H
  H110     1.0000 0.33164  0.57863  0.34799  Biso   1.000  H
  N67      1.0000 0.17264  0.61513  0.33906  Biso   1.000  N
  O31      1.0000 0.77653  0.27974  0.59677  Biso   1.000  O
  H111     1.0000 0.02126  0.62434  0.70201  Biso   1.000  H
  H112     1.0000 0.90963  0.59224  0.72882  Biso   1.000  H
  N68      1.0000 0.89483  0.64994  0.65876  Biso   1.000  N
  C100     1.0000 0.72759  0.45869  0.66440  Biso   1.000  C
  H113     1.0000 0.82785  0.32160  0.75551  Biso   1.000  H
  H114     1.0000 0.93421  0.37080  0.77119  Biso   1.000  H
  H115     1.0000 0.83014  0.44925  0.75862  Biso   1.000  H
  H116     1.0000 0.09040  0.40778  0.27120  Biso   1.000  H
  N69      1.0000 0.01398  0.52523  0.31584  Biso   1.000  N
  H117     1.0000 0.97886  0.37569  0.29801  Biso   1.000  H
  C101     1.0000 0.15839  0.70001  0.37276  Biso   1.000  C
  C102     1.0000 0.08315  0.61538  0.30524  Biso   1.000  C
  C103     1.0000 0.94291  0.72460  0.62665  Biso   1.000  C
  C104     1.0000 0.77695  0.65638  0.65702  Biso   1.000  C
  H118     1.0000 0.70766  0.47523  0.69981  Biso   1.000  H
  H119     1.0000 0.66848  0.42140  0.65198  Biso   1.000  H
  N70      1.0000 0.73506  0.56001  0.63680  Biso   1.000  N
  C105     1.0000 0.91053  0.55889  0.33580  Biso   1.000  C
  N71      1.0000 0.06016  0.75929  0.36571  Biso   1.000  N
  O32      1.0000 0.22359  0.72028  0.40324  Biso   1.000  O
  C106     1.0000 0.00367  0.72008  0.32383  Biso   1.000  C
  C107     1.0000 0.12687  0.61870  0.24988  Biso   1.000  C
  N72      1.0000 0.86226  0.77633  0.59908  Biso   1.000  N
  O33      1.0000 0.04009  0.74062  0.62302  Biso   1.000  O
  C108     1.0000 0.75357  0.74661  0.61628  Biso   1.000  C
  H120     1.0000 0.73910  0.67692  0.68989  Biso   1.000  H
  C109     1.0000 0.68440  0.58294  0.59197  Biso   1.000  C
  N73      1.0000 0.90153  0.67067  0.34061  Biso   1.000  N
  O34      1.0000 0.83590  0.50011  0.34636  Biso   1.000  O
  C110     1.0000 0.02892  0.86258  0.39180  Biso   1.000  C
  C111     1.0000 0.98194  0.80824  0.28373  Biso   1.000  C
  H121     1.0000 0.17227  0.67843  0.24450  Biso   1.000  H
  H122     1.0000 0.06591  0.62923  0.22879  Biso   1.000  H
  H123     1.0000 0.16998  0.55077  0.24140  Biso   1.000  H
  C112     1.0000 0.88050  0.87409  0.56940  Biso   1.000  C
  N74      1.0000 0.69896  0.69064  0.57871  Biso   1.000  N
  H124     1.0000 0.70637  0.80964  0.63051  Biso   1.000  H
  O35      1.0000 0.63518  0.52135  0.56909  Biso   1.000  O
  C113     1.0000 0.79969  0.72979  0.35984  Biso   1.000  C
  H125     1.0000 0.09492  0.88997  0.40301  Biso   1.000  H
  H126     1.0000 0.99794  0.91578  0.36791  Biso   1.000  H
  N75      1.0000 0.95027  0.85504  0.43490  Biso   1.000  N
  H127     1.0000 0.04958  0.83912  0.27321  Biso   1.000  H
  H128     1.0000 0.92879  0.86488  0.29752  Biso   1.000  H
  H129     1.0000 0.95377  0.77643  0.25511  Biso   1.000  H
  N76      1.0000 0.88404  0.85751  0.51529  Biso   1.000  N
  H130     1.0000 0.82189  0.93099  0.57890  Biso   1.000  H
  H131     1.0000 0.94969  0.89999  0.57761  Biso   1.000  H
  C114     1.0000 0.64904  0.74495  0.53638  Biso   1.000  C
  H132     1.0000 0.73917  0.68642  0.35451  Biso   1.000  H
  H133     1.0000 0.78824  0.79774  0.34061  Biso   1.000  H
  N77      1.0000 0.79639  0.75559  0.41312  Biso   1.000  N
  C115     1.0000 0.97796  0.86082  0.48390  Biso   1.000  C
  C116     1.0000 0.83236  0.85685  0.43156  Biso   1.000  C
  C117     1.0000 0.78610  0.86073  0.48764  Biso   1.000  C
  N78      1.0000 0.72600  0.76332  0.49332  Biso   1.000  N
  H134     1.0000 0.59300  0.70113  0.52559  Biso   1.000  H
  H135     1.0000 0.61240  0.81519  0.54751  Biso   1.000  H
  C118     1.0000 0.72775  0.70751  0.44898  Biso   1.000  C
  O36      1.0000 0.07133  0.86953  0.49711  Biso   1.000  O
  H136     1.0000 0.80322  0.92102  0.41240  Biso   1.000  H
  H137     1.0000 0.73709  0.92779  0.49469  Biso   1.000  H
  O37      1.0000 0.67669  0.62821  0.44201  Biso   1.000  O
  Ne1      1.0000 0.00006  0.50001  0.50000  Biso   1.000  Ne
  He1      1.0000 0.20388  0.62109  0.52370  Biso   1.000  He
  He2      1.0000 0.79201  0.37672  0.47583  Biso   1.000  He
  Ar1      1.0000 0.00006  0.50001  0.50000  Biso   1.000  Ar
  Ne2      1.0000 0.99690  0.01587  0.00019  Biso   1.000  Ne
  He3      1.0000 0.86621  0.76542  0.02409  Biso   1.000  He
  He4      1.0000 0.12183  0.21370  0.97856  Biso   1.000  He
  Ar2      1.0000 0.00479  0.00535  0.00213  Biso   1.000  Ar
