data_image0
_cell_length_a       12.367
_cell_length_b       13.826
_cell_length_c       20.075
_cell_angle_alpha    83.81
_cell_angle_beta     87.63
_cell_angle_gamma    84.96

_symmetry_space_group_name_H-M    "P 1"
_symmetry_int_tables_number       1

loop_
  _symmetry_equiv_pos_as_xyz
  'x, y, z'

loop_
  _atom_site_label
  _atom_site_occupancy
  _atom_site_fract_x
  _atom_site_fract_y
  _atom_site_fract_z
  _atom_site_thermal_displace_type
  _atom_site_B_iso_or_equiv
  _atom_site_type_symbol
  C1       1.0000 0.57052  0.43865  0.60418  Biso   1.000  C
  C2       1.0000 0.49051  0.44764  0.65191  Biso   1.000  C
  H1       1.0000 0.55671  0.46650  0.55962  Biso   1.000  H
  C3       1.0000 0.67323  0.38956  0.61802  Biso   1.000  C
  O1       1.0000 0.38802  0.49055  0.63191  Biso   1.000  O
  C4       1.0000 0.50636  0.40666  0.71778  Biso   1.000  C
  C5       1.0000 0.69023  0.34865  0.68349  Biso   1.000  C
  C6       1.0000 0.75823  0.38616  0.56132  Biso   1.000  C
  C7       1.0000 0.34592  0.57632  0.65652  Biso   1.000  C
  O2       1.0000 0.42073  0.41672  0.76330  Biso   1.000  O
  C8       1.0000 0.60546  0.35754  0.73232  Biso   1.000  C
  C9       1.0000 0.79612  0.29334  0.70720  Biso   1.000  C
  H2       1.0000 0.72273  0.37693  0.51941  Biso   1.000  H
  H3       1.0000 0.81171  0.32941  0.57160  Biso   1.000  H
  C10      1.0000 0.81773  0.47931  0.55039  Biso   1.000  C
  C11      1.0000 0.39833  0.62555  0.69988  Biso   1.000  C
  C12      1.0000 0.24411  0.61236  0.63401  Biso   1.000  C
  C13      1.0000 0.44514  0.39814  0.83278  Biso   1.000  C
  H4       1.0000 0.61738  0.32856  0.77668  Biso   1.000  H
  C14      1.0000 0.86682  0.35821  0.74079  Biso   1.000  C
  H5       1.0000 0.83703  0.26812  0.66830  Biso   1.000  H
  H6       1.0000 0.77955  0.23673  0.73939  Biso   1.000  H
  C15      1.0000 0.77700  0.55623  0.50492  Biso   1.000  C
  C16      1.0000 0.91063  0.49187  0.58518  Biso   1.000  C
  H7       1.0000 0.46794  0.60041  0.71522  Biso   1.000  H
  C17      1.0000 0.34978  0.71183  0.72119  Biso   1.000  C
  C18      1.0000 0.19584  0.69884  0.65441  Biso   1.000  C
  H8       1.0000 0.20777  0.57763  0.60458  Biso   1.000  H
  H9       1.0000 0.46718  0.32852  0.84361  Biso   1.000  H
  H10      1.0000 0.38055  0.41633  0.86010  Biso   1.000  H
  H11      1.0000 0.50436  0.43662  0.84231  Biso   1.000  H
  C19      1.0000 0.94455  0.41234  0.70580  Biso   1.000  C
  C20      1.0000 0.85416  0.36278  0.80942  Biso   1.000  C
  H12      1.0000 0.71523  0.54750  0.48031  Biso   1.000  H
  C21      1.0000 0.82286  0.64429  0.49409  Biso   1.000  C
  C22      1.0000 0.95400  0.58205  0.57561  Biso   1.000  C
  C23      1.0000 0.96976  0.41056  0.63030  Biso   1.000  C
  H13      1.0000 0.38581  0.74621  0.75092  Biso   1.000  H
  C24      1.0000 0.24812  0.74713  0.69868  Biso   1.000  C
  H14      1.0000 0.12711  0.72480  0.63802  Biso   1.000  H
  C25      1.0000 0.00492  0.47061  0.74029  Biso   1.000  C
  C26      1.0000 0.91344  0.41834  0.84361  Biso   1.000  C
  H15      1.0000 0.80189  0.32526  0.83358  Biso   1.000  H
  O3       1.0000 0.78972  0.72070  0.44822  Biso   1.000  O
  C27      1.0000 0.91122  0.65733  0.53189  Biso   1.000  C
  H16      1.0000 0.01544  0.59173  0.60022  Biso   1.000  H
  H17      1.0000 0.95125  0.34707  0.61722  Biso   1.000  H
  H18      1.0000 0.04898  0.41391  0.62218  Biso   1.000  H
  O4       1.0000 0.19186  0.83032  0.72119  Biso   1.000  O
  C28      1.0000 0.99084  0.47384  0.80912  Biso   1.000  C
  H19      1.0000 0.05662  0.50892  0.71623  Biso   1.000  H
  O5       1.0000 0.90317  0.41518  0.91339  Biso   1.000  O
  C29      1.0000 0.71343  0.70279  0.40040  Biso   1.000  C
  O6       1.0000 0.96303  0.74443  0.52162  Biso   1.000  O
  C30      1.0000 0.25836  0.90062  0.73588  Biso   1.000  C
  O7       1.0000 0.04823  0.52665  0.84662  Biso   1.000  O
  C31      1.0000 0.84489  0.49502  0.93831  Biso   1.000  C
  H20      1.0000 0.73852  0.64324  0.38000  Biso   1.000  H
  H21      1.0000 0.70701  0.75812  0.36561  Biso   1.000  H
  H22      1.0000 0.64251  0.69484  0.42301  Biso   1.000  H
  C32      1.0000 0.91784  0.82310  0.55330  Biso   1.000  C
  C33      1.0000 0.29727  0.96421  0.68359  Biso   1.000  C
  C34      1.0000 0.28016  0.91265  0.80080  Biso   1.000  C
  C35      1.0000 0.13349  0.57817  0.81298  Biso   1.000  C
  C36      1.0000 0.77158  0.55597  0.90051  Biso   1.000  C
  C37      1.0000 0.86012  0.50921  0.00388  Biso   1.000  C
  C38      1.0000 0.98398  0.89465  0.56072  Biso   1.000  C
  C39      1.0000 0.81122  0.83233  0.57661  Biso   1.000  C
  O8       1.0000 0.26760  0.95053  0.62043  Biso   1.000  O
  C40      1.0000 0.36333  0.03449  0.69888  Biso   1.000  C
  H23      1.0000 0.25048  0.87046  0.83609  Biso   1.000  H
  C41      1.0000 0.34388  0.98397  0.81689  Biso   1.000  C
  H24      1.0000 0.18294  0.53272  0.78962  Biso   1.000  H
  H25      1.0000 0.17365  0.60691  0.84592  Biso   1.000  H
  H26      1.0000 0.10237  0.62997  0.78039  Biso   1.000  H
  C42      1.0000 0.71285  0.63357  0.92828  Biso   1.000  C
  H27      1.0000 0.76080  0.54513  0.85539  Biso   1.000  H
  H28      1.0000 0.91011  0.46652  0.03000  Biso   1.000  H
  C43      1.0000 0.80226  0.58621  0.03170  Biso   1.000  C
  C44      1.0000 0.94566  0.97555  0.59160  Biso   1.000  C
  H29      1.0000 0.05714  0.88864  0.54443  Biso   1.000  H
  C45      1.0000 0.77285  0.91391  0.60729  Biso   1.000  C
  H30      1.0000 0.76443  0.78286  0.57150  Biso   1.000  H
  C46      1.0000 0.26025  0.03271  0.57240  Biso   1.000  C
  C47      1.0000 0.38878  0.04493  0.76470  Biso   1.000  C
  H31      1.0000 0.39220  0.07678  0.66339  Biso   1.000  H
  C48      1.0000 0.35947  0.99132  0.89058  Biso   1.000  C
  C49      1.0000 0.72974  0.64809  0.99400  Biso   1.000  C
  H32      1.0000 0.66208  0.67585  0.90241  Biso   1.000  H
  H33      1.0000 0.81278  0.59629  0.07702  Biso   1.000  H
  C50      1.0000 0.84008  0.98505  0.61591  Biso   1.000  C
  H34      1.0000 0.99246  0.02522  0.59631  Biso   1.000  H
  H35      1.0000 0.69917  0.92085  0.62268  Biso   1.000  H
  H36      1.0000 0.21789  0.08702  0.59150  Biso   1.000  H
  H37      1.0000 0.22412  0.01666  0.53290  Biso   1.000  H
  H38      1.0000 0.33326  0.05155  0.55931  Biso   1.000  H
  C51      1.0000 0.46352  0.12317  0.77628  Biso   1.000  C
  H39      1.0000 0.29013  0.97968  0.91550  Biso   1.000  H
  C52      1.0000 0.44938  0.92025  0.92242  Biso   1.000  C
  H40      1.0000 0.37601  0.05882  0.89600  Biso   1.000  H
  O9       1.0000 0.67706  0.72509  0.02519  Biso   1.000  O
  O10      1.0000 0.80104  0.07040  0.64379  Biso   1.000  O
  C53      1.0000 0.58223  0.08684  0.77508  Biso   1.000  C
  H41      1.0000 0.45167  0.17883  0.74129  Biso   1.000  H
  H42      1.0000 0.44404  0.14732  0.82030  Biso   1.000  H
  C54      1.0000 0.42368  0.82537  0.94658  Biso   1.000  C
  C55      1.0000 0.55374  0.94828  0.92999  Biso   1.000  C
  C56      1.0000 0.60152  0.78687  0.98809  Biso   1.000  C
  C57      1.0000 0.74506  0.05508  0.70620  Biso   1.000  C
  C58      1.0000 0.64022  0.04958  0.83178  Biso   1.000  C
  C59      1.0000 0.63772  0.08930  0.71222  Biso   1.000  C
  H43      1.0000 0.35272  0.80698  0.94051  Biso   1.000  H
  C60      1.0000 0.49854  0.75803  0.97911  Biso   1.000  C
  C61      1.0000 0.62869  0.87776  0.96342  Biso   1.000  C
  C62      1.0000 0.59122  0.04622  0.90291  Biso   1.000  C
  C63      1.0000 0.80182  0.01638  0.76290  Biso   1.000  C
  C64      1.0000 0.74932  0.01518  0.82411  Biso   1.000  C
  H44      1.0000 0.60005  0.11509  0.67311  Biso   1.000  H
  O11      1.0000 0.48031  0.66490  0.00518  Biso   1.000  O
  H45      1.0000 0.70045  0.89446  0.96869  Biso   1.000  H
  H46      1.0000 0.64608  0.06399  0.93299  Biso   1.000  H
  H47      1.0000 0.52864  0.09592  0.90362  Biso   1.000  H
  O12      1.0000 0.90783  0.98490  0.75122  Biso   1.000  O
  H48      1.0000 0.78825  0.98995  0.86291  Biso   1.000  H
  C65      1.0000 0.38418  0.62895  0.98759  Biso   1.000  C
  C66      1.0000 0.96606  0.93941  0.80671  Biso   1.000  C
  H49      1.0000 0.38126  0.63293  0.93861  Biso   1.000  H
  H50      1.0000 0.32159  0.66802  0.00518  Biso   1.000  H
  H51      1.0000 0.38225  0.56071  0.00659  Biso   1.000  H
  H52      1.0000 0.97096  0.98647  0.83950  Biso   1.000  H
  H53      1.0000 0.92839  0.88387  0.82762  Biso   1.000  H
  H54      1.0000 0.03935  0.91643  0.79172  Biso   1.000  H
  C67      1.0000 0.42949  0.56140  0.39579  Biso   1.000  C
  C68      1.0000 0.32687  0.61048  0.38200  Biso   1.000  C
  C69      1.0000 0.50950  0.55241  0.34811  Biso   1.000  C
  H55      1.0000 0.44330  0.53354  0.44040  Biso   1.000  H
  C70      1.0000 0.24187  0.61389  0.43870  Biso   1.000  C
  C71      1.0000 0.30986  0.65140  0.31648  Biso   1.000  C
  C72      1.0000 0.49373  0.59339  0.28219  Biso   1.000  C
  O13      1.0000 0.61200  0.50949  0.36811  Biso   1.000  O
  C73      1.0000 0.18236  0.52074  0.44958  Biso   1.000  C
  H56      1.0000 0.27736  0.62311  0.48061  Biso   1.000  H
  H57      1.0000 0.18830  0.67064  0.42842  Biso   1.000  H
  C74      1.0000 0.20389  0.70671  0.29282  Biso   1.000  C
  C75      1.0000 0.39463  0.64250  0.26770  Biso   1.000  C
  O14      1.0000 0.57928  0.58333  0.23672  Biso   1.000  O
  C76      1.0000 0.65409  0.42372  0.34350  Biso   1.000  C
  C77      1.0000 0.22301  0.44381  0.49510  Biso   1.000  C
  C78      1.0000 0.08946  0.50819  0.41479  Biso   1.000  C
  C79      1.0000 0.13320  0.64184  0.25918  Biso   1.000  C
  H58      1.0000 0.16298  0.73192  0.33172  Biso   1.000  H
  H59      1.0000 0.22055  0.76332  0.26058  Biso   1.000  H
  H60      1.0000 0.38271  0.67149  0.22328  Biso   1.000  H
  C80      1.0000 0.55495  0.60192  0.16719  Biso   1.000  C
  C81      1.0000 0.60176  0.37450  0.30009  Biso   1.000  C
  C82      1.0000 0.75590  0.38769  0.36601  Biso   1.000  C
  C83      1.0000 0.17724  0.35576  0.50593  Biso   1.000  C
  H61      1.0000 0.28486  0.45255  0.51971  Biso   1.000  H
  C84      1.0000 0.04601  0.41799  0.42441  Biso   1.000  C
  C85      1.0000 0.03033  0.58948  0.36972  Biso   1.000  C
  C86      1.0000 0.05554  0.58771  0.29422  Biso   1.000  C
  C87      1.0000 0.14593  0.63727  0.19060  Biso   1.000  C
  H62      1.0000 0.53291  0.67152  0.15641  Biso   1.000  H
  H63      1.0000 0.61954  0.58371  0.13992  Biso   1.000  H
  H64      1.0000 0.49573  0.56343  0.15771  Biso   1.000  H
  C88      1.0000 0.65032  0.28823  0.27878  Biso   1.000  C
  H65      1.0000 0.53216  0.39963  0.28480  Biso   1.000  H
  C89      1.0000 0.80426  0.30120  0.34561  Biso   1.000  C
  H66      1.0000 0.79233  0.42242  0.39539  Biso   1.000  H
  C90      1.0000 0.08879  0.34271  0.46813  Biso   1.000  C
  O15      1.0000 0.21037  0.27935  0.55180  Biso   1.000  O
  H67      1.0000 0.98465  0.40831  0.39980  Biso   1.000  H
  H68      1.0000 0.04885  0.65298  0.38280  Biso   1.000  H
  H69      1.0000 0.95111  0.58615  0.37779  Biso   1.000  H
  C91      1.0000 0.99510  0.52944  0.25968  Biso   1.000  C
  C92      1.0000 0.08657  0.58171  0.15641  Biso   1.000  C
  H70      1.0000 0.19821  0.67479  0.16639  Biso   1.000  H
  C93      1.0000 0.75189  0.25292  0.30129  Biso   1.000  C
  H71      1.0000 0.61421  0.25383  0.24910  Biso   1.000  H
  H72      1.0000 0.87290  0.27525  0.36200  Biso   1.000  H
  O16      1.0000 0.03706  0.25561  0.47840  Biso   1.000  O
  C94      1.0000 0.28666  0.29725  0.59962  Biso   1.000  C
  C95      1.0000 0.00925  0.52620  0.19090  Biso   1.000  C
  H73      1.0000 0.94339  0.49113  0.28379  Biso   1.000  H
  O17      1.0000 0.09693  0.58487  0.08658  Biso   1.000  O
  O18      1.0000 0.80823  0.16973  0.27878  Biso   1.000  O
  C96      1.0000 0.08225  0.17694  0.44672  Biso   1.000  C
  H74      1.0000 0.26158  0.35680  0.62002  Biso   1.000  H
  H75      1.0000 0.29300  0.24192  0.63441  Biso   1.000  H
  H76      1.0000 0.35751  0.30520  0.57701  Biso   1.000  H
  O19      1.0000 0.95178  0.47340  0.15340  Biso   1.000  O
  C97      1.0000 0.15520  0.50502  0.06171  Biso   1.000  C
  C98      1.0000 0.74173  0.09943  0.26409  Biso   1.000  C
  C99      1.0000 0.18879  0.16772  0.42341  Biso   1.000  C
  C100     1.0000 0.01612  0.10540  0.43930  Biso   1.000  C
  C101     1.0000 0.86661  0.42188  0.18699  Biso   1.000  C
  C102     1.0000 0.22851  0.44408  0.09951  Biso   1.000  C
  C103     1.0000 0.13997  0.49085  0.99609  Biso   1.000  C
  C104     1.0000 0.71994  0.08740  0.19922  Biso   1.000  C
  C105     1.0000 0.70282  0.03584  0.31638  Biso   1.000  C
  C106     1.0000 0.22725  0.08615  0.39268  Biso   1.000  C
  H77      1.0000 0.23566  0.21726  0.42852  Biso   1.000  H
  C107     1.0000 0.05443  0.02450  0.40842  Biso   1.000  C
  H78      1.0000 0.94295  0.11141  0.45559  Biso   1.000  H
  H79      1.0000 0.81707  0.46732  0.21040  Biso   1.000  H
  H80      1.0000 0.82644  0.39313  0.15410  Biso   1.000  H
  H81      1.0000 0.89773  0.37007  0.21963  Biso   1.000  H
  C108     1.0000 0.28724  0.36649  0.07169  Biso   1.000  C
  H82      1.0000 0.23930  0.45492  0.14458  Biso   1.000  H
  C109     1.0000 0.19776  0.41383  0.96832  Biso   1.000  C
  H83      1.0000 0.08999  0.53352  0.97002  Biso   1.000  H
  C110     1.0000 0.65622  0.01609  0.18308  Biso   1.000  C
  H84      1.0000 0.74962  0.12960  0.16388  Biso   1.000  H
  C111     1.0000 0.63677  0.96557  0.30109  Biso   1.000  C
  O20      1.0000 0.73241  0.04951  0.37959  Biso   1.000  O
  C112     1.0000 0.16001  0.01506  0.38411  Biso   1.000  C
  H85      1.0000 0.30093  0.07920  0.37729  Biso   1.000  H
  H86      1.0000 0.00764  0.97483  0.40371  Biso   1.000  H
  C113     1.0000 0.27028  0.35196  0.00602  Biso   1.000  C
  H87      1.0000 0.33801  0.32420  0.09761  Biso   1.000  H
  H88      1.0000 0.18723  0.40375  0.92300  Biso   1.000  H
  C114     1.0000 0.61132  0.95512  0.23532  Biso   1.000  C
  C115     1.0000 0.64062  0.00874  0.10939  Biso   1.000  C
  H89      1.0000 0.60781  0.92327  0.33658  Biso   1.000  H
  C116     1.0000 0.73985  0.96733  0.42762  Biso   1.000  C
  O21      1.0000 0.19906  0.92965  0.35618  Biso   1.000  O
  O22      1.0000 0.32295  0.27496  0.97478  Biso   1.000  O
  C117     1.0000 0.53650  0.87688  0.22369  Biso   1.000  C
  C118     1.0000 0.55071  0.07980  0.07760  Biso   1.000  C
  H90      1.0000 0.70988  0.02037  0.08452  Biso   1.000  H
  H91      1.0000 0.62400  0.94123  0.10402  Biso   1.000  H
  H92      1.0000 0.78212  0.91303  0.40852  Biso   1.000  H
  H93      1.0000 0.77597  0.98338  0.46712  Biso   1.000  H
  H94      1.0000 0.66683  0.94849  0.44070  Biso   1.000  H
  C119     1.0000 0.25503  0.94497  0.29382  Biso   1.000  C
  C120     1.0000 0.39850  0.21318  0.01188  Biso   1.000  C
  C121     1.0000 0.41786  0.91322  0.22489  Biso   1.000  C
  H95      1.0000 0.54843  0.82123  0.25868  Biso   1.000  H
  H96      1.0000 0.55605  0.85272  0.17972  Biso   1.000  H
  C122     1.0000 0.44635  0.05177  0.06998  Biso   1.000  C
  C123     1.0000 0.57641  0.17469  0.05339  Biso   1.000  C
  C124     1.0000 0.19819  0.98367  0.23712  Biso   1.000  C
  C125     1.0000 0.36229  0.91074  0.28780  Biso   1.000  C
  C126     1.0000 0.37140  0.12228  0.03660  Biso   1.000  C
  C127     1.0000 0.50147  0.24201  0.02090  Biso   1.000  C
  C128     1.0000 0.35979  0.95047  0.16819  Biso   1.000  C
  C129     1.0000 0.40879  0.95383  0.09710  Biso   1.000  C
  H97      1.0000 0.64729  0.19307  0.05951  Biso   1.000  H
  O23      1.0000 0.09219  0.01514  0.24880  Biso   1.000  O
  C130     1.0000 0.25069  0.98487  0.17591  Biso   1.000  C
  H98      1.0000 0.40004  0.88496  0.32691  Biso   1.000  H
  H99      1.0000 0.29957  0.10560  0.03128  Biso   1.000  H
  O24      1.0000 0.51979  0.33516  0.99479  Biso   1.000  O
  H100     1.0000 0.35401  0.93606  0.06698  Biso   1.000  H
  H101     1.0000 0.47145  0.90413  0.09640  Biso   1.000  H
  C131     1.0000 0.03403  0.06063  0.19331  Biso   1.000  C
  H102     1.0000 0.21185  0.01010  0.13711  Biso   1.000  H
  C132     1.0000 0.61591  0.37110  0.01238  Biso   1.000  C
  H103     1.0000 0.02913  0.01357  0.16052  Biso   1.000  H
  H104     1.0000 0.07170  0.11625  0.17240  Biso   1.000  H
  H105     1.0000 0.96074  0.08362  0.20830  Biso   1.000  H
  H106     1.0000 0.61883  0.36711  0.06141  Biso   1.000  H
  H107     1.0000 0.67850  0.33203  0.99479  Biso   1.000  H
  H108     1.0000 0.61776  0.43934  0.99338  Biso   1.000  H
