data_image0
_cell_length_a       14.56
_cell_length_b       15.007
_cell_length_c       15.239
_cell_angle_alpha    83.05
_cell_angle_beta     81.65
_cell_angle_gamma    81.72

_symmetry_space_group_name_H-M    "P 1"
_symmetry_int_tables_number       1

loop_
  _symmetry_equiv_pos_as_xyz
  'x, y, z'

loop_
  _atom_site_label
  _atom_site_occupancy
  _atom_site_fract_x
  _atom_site_fract_y
  _atom_site_fract_z
  _atom_site_thermal_displace_type
  _atom_site_B_iso_or_equiv
  _atom_site_type_symbol
  C1       1.0000 0.30017  0.81888  0.09934  Biso   1.000  C
  C2       1.0000 0.34619  0.96532  0.01007  Biso   1.000  C
  C3       1.0000 0.24781  0.97142  0.14528  Biso   1.000  C
  C4       1.0000 0.34619  0.96524  0.01013  Biso   1.000  C
  C5       1.0000 0.24780  0.97141  0.14535  Biso   1.000  C
  C6       1.0000 0.34620  0.96525  0.01007  Biso   1.000  C
  N1       1.0000 0.24669  0.77541  0.04720  Biso   1.000  N
  H1       1.0000 0.28049  0.80286  0.16222  Biso   1.000  H
  H2       1.0000 0.36591  0.79561  0.08674  Biso   1.000  H
  N2       1.0000 0.28978  0.91495  0.08201  Biso   1.000  N
  N3       1.0000 0.24668  0.77540  0.04727  Biso   1.000  N
  N4       1.0000 0.24675  0.77541  0.04720  Biso   1.000  N
  N5       1.0000 0.28983  0.91502  0.08201  Biso   1.000  N
  N6       1.0000 0.24675  0.77540  0.04727  Biso   1.000  N
  H3       1.0000 0.41332  0.94510  0.01020  Biso   1.000  H
  N7       1.0000 0.31851  0.96515  0.92346  Biso   1.000  N
  C7       1.0000 0.32060  0.06429  0.03160  Biso   1.000  C
  O1       1.0000 0.20714  0.94356  0.21776  Biso   1.000  O
  N8       1.0000 0.25789  0.05819  0.11441  Biso   1.000  N
  N9       1.0000 0.25796  0.05819  0.11441  Biso   1.000  N
  C8       1.0000 0.28019  0.74900  0.95653  Biso   1.000  C
  C9       1.0000 0.28018  0.74906  0.95653  Biso   1.000  C
  C10      1.0000 0.17130  0.73038  0.08468  Biso   1.000  C
  C11      1.0000 0.17128  0.73044  0.08474  Biso   1.000  C
  C12      1.0000 0.34166  0.88942  0.87132  Biso   1.000  C
  C13      1.0000 0.34164  0.88948  0.87139  Biso   1.000  C
  C14      1.0000 0.34172  0.88941  0.87139  Biso   1.000  C
  C15      1.0000 0.28036  0.04722  0.89052  Biso   1.000  C
  C16      1.0000 0.28043  0.04722  0.89052  Biso   1.000  C
  N10      1.0000 0.27384  0.10730  0.95520  Biso   1.000  N
  N11      1.0000 0.27383  0.10729  0.95526  Biso   1.000  N
  N12      1.0000 0.27384  0.10723  0.95526  Biso   1.000  N
  H4       1.0000 0.37591  0.09219  0.03720  Biso   1.000  H
  C17      1.0000 0.22266  0.13460  0.16582  Biso   1.000  C
  C18      1.0000 0.22265  0.13466  0.16582  Biso   1.000  C
  C19      1.0000 0.20370  0.69386  0.94013  Biso   1.000  C
  H5       1.0000 0.34209  0.71299  0.95313  Biso   1.000  H
  N13      1.0000 0.27596  0.82329  0.88692  Biso   1.000  N
  N14      1.0000 0.27594  0.82335  0.88699  Biso   1.000  N
  N15      1.0000 0.14552  0.68542  0.02347  Biso   1.000  N
  N16      1.0000 0.14551  0.68541  0.02354  Biso   1.000  N
  O2       1.0000 0.13685  0.73118  0.16322  Biso   1.000  O
  O3       1.0000 0.13684  0.73124  0.16328  Biso   1.000  O
  H6       1.0000 0.40267  0.85870  0.88312  Biso   1.000  H
  H7       1.0000 0.40266  0.85877  0.88312  Biso   1.000  H
  H8       1.0000 0.34705  0.91247  0.80885  Biso   1.000  H
  H9       1.0000 0.34713  0.91240  0.80885  Biso   1.000  H
  O4       1.0000 0.25523  0.06904  0.81718  Biso   1.000  O
  C20      1.0000 0.25409  0.20325  0.93446  Biso   1.000  C
  C21      1.0000 0.25409  0.20333  0.93439  Biso   1.000  C
  H10      1.0000 0.20688  0.11220  0.22782  Biso   1.000  H
  N17      1.0000 0.14198  0.18781  0.13455  Biso   1.000  N
  H11      1.0000 0.20687  0.11227  0.22782  Biso   1.000  H
  H12      1.0000 0.27165  0.17283  0.16275  Biso   1.000  H
  H13      1.0000 0.27171  0.17283  0.16275  Biso   1.000  H
  N18      1.0000 0.14197  0.18780  0.13461  Biso   1.000  N
  N19      1.0000 0.16227  0.74934  0.86759  Biso   1.000  N
  H14      1.0000 0.23127  0.63424  0.92226  Biso   1.000  H
  H15      1.0000 0.23129  0.63418  0.92219  Biso   1.000  H
  C22      1.0000 0.20834  0.82207  0.83505  Biso   1.000  C
  C23      1.0000 0.20842  0.82201  0.83505  Biso   1.000  C
  C24      1.0000 0.06637  0.63563  0.03927  Biso   1.000  C
  C25      1.0000 0.06636  0.63562  0.03934  Biso   1.000  C
  H16      1.0000 0.25647  0.21685  0.87032  Biso   1.000  H
  H17      1.0000 0.30212  0.23233  0.95340  Biso   1.000  H
  N20      1.0000 0.16240  0.24065  0.97706  Biso   1.000  N
  H18      1.0000 0.25646  0.21692  0.87032  Biso   1.000  H
  H19      1.0000 0.30210  0.23239  0.95346  Biso   1.000  H
  H20      1.0000 0.25653  0.21692  0.87032  Biso   1.000  H
  H21      1.0000 0.30211  0.23240  0.95340  Biso   1.000  H
  H22      1.0000 0.25654  0.21685  0.87032  Biso   1.000  H
  H23      1.0000 0.30211  0.23233  0.95346  Biso   1.000  H
  C26      1.0000 0.05546  0.18927  0.18402  Biso   1.000  C
  C27      1.0000 0.14792  0.26428  0.06734  Biso   1.000  C
  C28      1.0000 0.05547  0.18920  0.18402  Biso   1.000  C
  C29      1.0000 0.09828  0.71846  0.81671  Biso   1.000  C
  C30      1.0000 0.09829  0.71839  0.81671  Biso   1.000  C
  O5       1.0000 0.19613  0.87300  0.76804  Biso   1.000  O
  O6       1.0000 0.19612  0.87307  0.76804  Biso   1.000  O
  H24      1.0000 0.05418  0.61680  0.10261  Biso   1.000  H
  H25      1.0000 0.08191  0.58131  0.00860  Biso   1.000  H
  N21      1.0000 0.98246  0.68612  0.01020  Biso   1.000  N
  N22      1.0000 0.98244  0.68618  0.01027  Biso   1.000  N
  C31      1.0000 0.09099  0.27455  0.93073  Biso   1.000  C
  N23      1.0000 0.99810  0.26217  0.14862  Biso   1.000  N
  N24      1.0000 0.99812  0.26211  0.14855  Biso   1.000  N
  O7       1.0000 0.03304  0.13459  0.24896  Biso   1.000  O
  O8       1.0000 0.03312  0.13452  0.24896  Biso   1.000  O
  H26      1.0000 0.19336  0.30294  0.07761  Biso   1.000  H
  C32      1.0000 0.04568  0.31526  0.07567  Biso   1.000  C
  H27      1.0000 0.19337  0.30287  0.07761  Biso   1.000  H
  C33      1.0000 0.04569  0.31519  0.07567  Biso   1.000  C
  N25      1.0000 0.00186  0.73788  0.85145  Biso   1.000  N
  H28      1.0000 0.11359  0.65352  0.81505  Biso   1.000  H
  N26      1.0000 0.00185  0.73795  0.85145  Biso   1.000  N
  H29      1.0000 0.10767  0.74659  0.75591  Biso   1.000  H
  N27      1.0000 0.00193  0.73788  0.85145  Biso   1.000  N
  C34      1.0000 0.95429  0.68480  0.92433  Biso   1.000  C
  C35      1.0000 0.95428  0.68479  0.92439  Biso   1.000  C
  C36      1.0000 0.90899  0.72544  0.06927  Biso   1.000  C
  C37      1.0000 0.90898  0.72544  0.06934  Biso   1.000  C
  O9       1.0000 0.08683  0.27314  0.85278  Biso   1.000  O
  O10      1.0000 0.08682  0.27321  0.85278  Biso   1.000  O
  N28      1.0000 0.01752  0.31387  0.98980  Biso   1.000  N
  C38      1.0000 0.90168  0.28159  0.18335  Biso   1.000  C
  H30      1.0000 0.04449  0.37745  0.08961  Biso   1.000  H
  H31      1.0000 0.04450  0.37738  0.08961  Biso   1.000  H
  C39      1.0000 0.94450  0.81078  0.81605  Biso   1.000  C
  C40      1.0000 0.85206  0.73572  0.93266  Biso   1.000  C
  H32      1.0000 0.95548  0.62261  0.91039  Biso   1.000  H
  C41      1.0000 0.85204  0.73578  0.93273  Biso   1.000  C
  C42      1.0000 0.85213  0.73572  0.93266  Biso   1.000  C
  C43      1.0000 0.85212  0.73571  0.93273  Biso   1.000  C
  H33      1.0000 0.95547  0.62260  0.91046  Biso   1.000  H
  N29      1.0000 0.83758  0.75934  0.02294  Biso   1.000  N
  N30      1.0000 0.83757  0.75933  0.02300  Biso   1.000  N
  N31      1.0000 0.83765  0.75934  0.02294  Biso   1.000  N
  O11      1.0000 0.91315  0.72678  0.14722  Biso   1.000  O
  N32      1.0000 0.83764  0.75933  0.02300  Biso   1.000  N
  O12      1.0000 0.91313  0.72684  0.14728  Biso   1.000  O
  C44      1.0000 0.93361  0.36436  0.96073  Biso   1.000  C
  C45      1.0000 0.93360  0.36443  0.96073  Biso   1.000  C
  H34      1.0000 0.88636  0.34654  0.18502  Biso   1.000  H
  N33      1.0000 0.83770  0.25072  0.13241  Biso   1.000  N
  H35      1.0000 0.89229  0.25347  0.24416  Biso   1.000  H
  N34      1.0000 0.83769  0.25071  0.13248  Biso   1.000  N
  H36      1.0000 0.88637  0.34647  0.18502  Biso   1.000  H
  H37      1.0000 0.89230  0.25340  0.24416  Biso   1.000  H
  N35      1.0000 0.85799  0.81225  0.86545  Biso   1.000  N
  O13      1.0000 0.96691  0.86553  0.75111  Biso   1.000  O
  N36      1.0000 0.85800  0.81218  0.86545  Biso   1.000  N
  O14      1.0000 0.96692  0.86546  0.75111  Biso   1.000  O
  H38      1.0000 0.80659  0.69711  0.92246  Biso   1.000  H
  C46      1.0000 0.74589  0.79666  0.06561  Biso   1.000  C
  N37      1.0000 0.85446  0.31457  0.97653  Biso   1.000  N
  H39      1.0000 0.94579  0.38318  0.89746  Biso   1.000  H
  H40      1.0000 0.91813  0.41868  0.99140  Biso   1.000  H
  C47      1.0000 0.79625  0.30626  0.05987  Biso   1.000  C
  C48      1.0000 0.79624  0.30625  0.05994  Biso   1.000  C
  C49      1.0000 0.79162  0.17798  0.16502  Biso   1.000  C
  C50      1.0000 0.79633  0.30619  0.05987  Biso   1.000  C
  C51      1.0000 0.79632  0.30619  0.05994  Biso   1.000  C
  C52      1.0000 0.77730  0.86539  0.83425  Biso   1.000  C
  N38      1.0000 0.72614  0.89269  0.04480  Biso   1.000  N
  H41      1.0000 0.69787  0.76759  0.04660  Biso   1.000  H
  H42      1.0000 0.74352  0.78308  0.12968  Biso   1.000  H
  H43      1.0000 0.74350  0.78314  0.12975  Biso   1.000  H
  C53      1.0000 0.82869  0.26955  0.91532  Biso   1.000  C
  C54      1.0000 0.82868  0.26962  0.91532  Biso   1.000  C
  N39      1.0000 0.72408  0.17677  0.11308  Biso   1.000  N
  O15      1.0000 0.80383  0.12705  0.23202  Biso   1.000  O
  O16      1.0000 0.80391  0.12699  0.23202  Biso   1.000  O
  H44      1.0000 0.76869  0.36581  0.07781  Biso   1.000  H
  C55      1.0000 0.71978  0.25106  0.04347  Biso   1.000  C
  H45      1.0000 0.76868  0.36588  0.07781  Biso   1.000  H
  C56      1.0000 0.71977  0.25106  0.04354  Biso   1.000  C
  C57      1.0000 0.71979  0.25100  0.04347  Biso   1.000  C
  C58      1.0000 0.71978  0.25099  0.04354  Biso   1.000  C
  H46      1.0000 0.72831  0.82722  0.83732  Biso   1.000  H
  H47      1.0000 0.79308  0.88785  0.77224  Biso   1.000  H
  H48      1.0000 0.79310  0.88779  0.77218  Biso   1.000  H
  N40      1.0000 0.74207  0.94187  0.88565  Biso   1.000  N
  C59      1.0000 0.67936  0.93584  0.96840  Biso   1.000  C
  C60      1.0000 0.67935  0.93583  0.96846  Biso   1.000  C
  C61      1.0000 0.67944  0.93577  0.96840  Biso   1.000  C
  C62      1.0000 0.67942  0.93583  0.96846  Biso   1.000  C
  C63      1.0000 0.71962  0.95278  0.10948  Biso   1.000  C
  C64      1.0000 0.71961  0.95277  0.10954  Biso   1.000  C
  N41      1.0000 0.75329  0.22458  0.95280  Biso   1.000  N
  O17      1.0000 0.86313  0.26874  0.83678  Biso   1.000  O
  O18      1.0000 0.86312  0.26881  0.83678  Biso   1.000  O
  C65      1.0000 0.65831  0.11064  0.12868  Biso   1.000  C
  C66      1.0000 0.65832  0.11057  0.12868  Biso   1.000  C
  H49      1.0000 0.65789  0.28700  0.04687  Biso   1.000  H
  H50      1.0000 0.65787  0.28707  0.04694  Biso   1.000  H
  H51      1.0000 0.65788  0.28700  0.04694  Biso   1.000  H
  C67      1.0000 0.75217  0.02858  0.85472  Biso   1.000  C
  H52      1.0000 0.62407  0.90780  0.96280  Biso   1.000  H
  H53      1.0000 0.62405  0.90786  0.96286  Biso   1.000  H
  H54      1.0000 0.62406  0.90779  0.96286  Biso   1.000  H
  C68      1.0000 0.65379  0.03468  0.98993  Biso   1.000  C
  C69      1.0000 0.65378  0.03474  0.98993  Biso   1.000  C
  O19      1.0000 0.74474  0.93088  0.18289  Biso   1.000  O
  N42      1.0000 0.68144  0.03497  0.07661  Biso   1.000  N
  N43      1.0000 0.68146  0.03491  0.07654  Biso   1.000  N
  C70      1.0000 0.69980  0.18110  0.90072  Biso   1.000  C
  H55      1.0000 0.59731  0.14129  0.11688  Biso   1.000  H
  H56      1.0000 0.65291  0.08759  0.19122  Biso   1.000  H
  H57      1.0000 0.59730  0.14129  0.11695  Biso   1.000  H
  N44      1.0000 0.71019  0.08503  0.91806  Biso   1.000  N
  O20      1.0000 0.79284  0.05636  0.78231  Biso   1.000  O
  H58      1.0000 0.58666  0.05489  0.98980  Biso   1.000  H
  H59      1.0000 0.58673  0.05489  0.98980  Biso   1.000  H
  H60      1.0000 0.58674  0.05482  0.98980  Biso   1.000  H
  H61      1.0000 0.71949  0.19705  0.83785  Biso   1.000  H
  H62      1.0000 0.71949  0.19713  0.83778  Biso   1.000  H
  H63      1.0000 0.63413  0.20437  0.91332  Biso   1.000  H
  C71      1.0000 0.47002  0.74142  0.23909  Biso   1.000  C
  C72      1.0000 0.45583  0.65550  0.19949  Biso   1.000  C
  N45      1.0000 0.39451  0.75290  0.31077  Biso   1.000  N
  H64      1.0000 0.46861  0.79408  0.19429  Biso   1.000  H
  N46      1.0000 0.56324  0.71687  0.26796  Biso   1.000  N
  N47      1.0000 0.37383  0.62695  0.25849  Biso   1.000  N
  N48      1.0000 0.54329  0.59629  0.20742  Biso   1.000  N
  H65      1.0000 0.44361  0.66861  0.13741  Biso   1.000  H
  C73      1.0000 0.33739  0.68567  0.31757  Biso   1.000  C
  C74      1.0000 0.37568  0.82767  0.36304  Biso   1.000  C
  C75      1.0000 0.60753  0.63359  0.24316  Biso   1.000  C
  C76      1.0000 0.61203  0.78419  0.29870  Biso   1.000  C
  C77      1.0000 0.32210  0.55774  0.23896  Biso   1.000  C
  C78      1.0000 0.56549  0.51436  0.16442  Biso   1.000  C
  O21      1.0000 0.26546  0.68233  0.36977  Biso   1.000  O
  H66      1.0000 0.30927  0.83630  0.38437  Biso   1.000  H
  H67      1.0000 0.39020  0.88180  0.32490  Biso   1.000  H
  N49      1.0000 0.42605  0.81881  0.43744  Biso   1.000  N
  O22      1.0000 0.68246  0.60185  0.25383  Biso   1.000  O
  H68      1.0000 0.59350  0.84301  0.26783  Biso   1.000  H
  H69      1.0000 0.67881  0.76892  0.28230  Biso   1.000  H
  N50      1.0000 0.59405  0.79069  0.39171  Biso   1.000  N
  N51      1.0000 0.36376  0.46650  0.26683  Biso   1.000  N
  H70      1.0000 0.25853  0.56762  0.26889  Biso   1.000  H
  H71      1.0000 0.31907  0.56333  0.17528  Biso   1.000  H
  N52      1.0000 0.52845  0.43696  0.21529  Biso   1.000  N
  H72      1.0000 0.54152  0.52451  0.10748  Biso   1.000  H
  H73      1.0000 0.63313  0.50057  0.15262  Biso   1.000  H
  C79      1.0000 0.38957  0.79247  0.52379  Biso   1.000  C
  C80      1.0000 0.51675  0.84873  0.43464  Biso   1.000  C
  C81      1.0000 0.65746  0.75434  0.44738  Biso   1.000  C
  C82      1.0000 0.32231  0.41690  0.33850  Biso   1.000  C
  C83      1.0000 0.43582  0.41601  0.21349  Biso   1.000  C
  C84      1.0000 0.58489  0.36390  0.24649  Biso   1.000  C
  N53      1.0000 0.45676  0.79289  0.57753  Biso   1.000  N
  O23      1.0000 0.31245  0.76773  0.54612  Biso   1.000  O
  C85      1.0000 0.53458  0.83572  0.53339  Biso   1.000  C
  H74      1.0000 0.51660  0.91200  0.40958  Biso   1.000  H
  N54      1.0000 0.62406  0.77994  0.52965  Biso   1.000  N
  O24      1.0000 0.73192  0.70545  0.42731  Biso   1.000  O
  N55      1.0000 0.36866  0.33040  0.34083  Biso   1.000  N
  O25      1.0000 0.25677  0.44185  0.39204  Biso   1.000  O
  C86      1.0000 0.43688  0.31858  0.26009  Biso   1.000  C
  H75      1.0000 0.42174  0.41907  0.15222  Biso   1.000  H
  N56      1.0000 0.53435  0.29533  0.27910  Biso   1.000  N
  O26      1.0000 0.67094  0.36005  0.24856  Biso   1.000  O
  C87      1.0000 0.43131  0.78917  0.67494  Biso   1.000  C
  H76      1.0000 0.53681  0.89362  0.55612  Biso   1.000  H
  C88      1.0000 0.66972  0.74810  0.60873  Biso   1.000  C
  C89      1.0000 0.33027  0.25191  0.39124  Biso   1.000  C
  H77      1.0000 0.41959  0.27690  0.22249  Biso   1.000  H
  C90      1.0000 0.56868  0.21083  0.32510  Biso   1.000  C
  N57      1.0000 0.46564  0.70468  0.72087  Biso   1.000  N
  H78      1.0000 0.36357  0.79909  0.68840  Biso   1.000  H
  H79      1.0000 0.45608  0.83783  0.69667  Biso   1.000  H
  N58      1.0000 0.63139  0.66960  0.65920  Biso   1.000  N
  H80      1.0000 0.73619  0.73217  0.59093  Biso   1.000  H
  H81      1.0000 0.66208  0.79667  0.64680  Biso   1.000  H
  H82      1.0000 0.26379  0.26783  0.40911  Biso   1.000  H
  H83      1.0000 0.33791  0.20334  0.35317  Biso   1.000  H
  N59      1.0000 0.37600  0.22006  0.47031  Biso   1.000  N
  N60      1.0000 0.54324  0.20705  0.42251  Biso   1.000  N
  H84      1.0000 0.63641  0.20091  0.31163  Biso   1.000  H
  H85      1.0000 0.54391  0.16218  0.30330  Biso   1.000  H
  C91      1.0000 0.41510  0.63611  0.75348  Biso   1.000  C
  C92      1.0000 0.56312  0.68143  0.73988  Biso   1.000  C
  C93      1.0000 0.67768  0.58311  0.66147  Biso   1.000  C
  C94      1.0000 0.34252  0.24566  0.55266  Biso   1.000  C
  C95      1.0000 0.46541  0.16429  0.46658  Biso   1.000  C
  C96      1.0000 0.61043  0.20747  0.47618  Biso   1.000  C
  N61      1.0000 0.47154  0.56305  0.78468  Biso   1.000  N
  O27      1.0000 0.32905  0.63996  0.75148  Biso   1.000  O
  C97      1.0000 0.56418  0.58400  0.78648  Biso   1.000  C
  H86      1.0000 0.58040  0.72311  0.77748  Biso   1.000  H
  N62      1.0000 0.63623  0.53351  0.73314  Biso   1.000  N
  O28      1.0000 0.74330  0.55816  0.60793  Biso   1.000  O
  N63      1.0000 0.40594  0.20932  0.60826  Biso   1.000  N
  O29      1.0000 0.26814  0.29456  0.57266  Biso   1.000  O
  H87      1.0000 0.46317  0.10638  0.44391  Biso   1.000  H
  C98      1.0000 0.48324  0.15128  0.56532  Biso   1.000  C
  N64      1.0000 0.57393  0.18120  0.56259  Biso   1.000  N
  O30      1.0000 0.68754  0.23227  0.45391  Biso   1.000  O
  C99      1.0000 0.43450  0.48565  0.83555  Biso   1.000  C
  H88      1.0000 0.57833  0.58087  0.84782  Biso   1.000  H
  C100     1.0000 0.67789  0.44227  0.76101  Biso   1.000  C
  C101     1.0000 0.38803  0.21582  0.70127  Biso   1.000  C
  H89      1.0000 0.48340  0.08801  0.59039  Biso   1.000  H
  C102     1.0000 0.62432  0.17227  0.63693  Biso   1.000  C
  N65      1.0000 0.45669  0.40371  0.79261  Biso   1.000  N
  H90      1.0000 0.45854  0.47549  0.89249  Biso   1.000  H
  H91      1.0000 0.36692  0.49943  0.84742  Biso   1.000  H
  N66      1.0000 0.62615  0.37305  0.74154  Biso   1.000  N
  H92      1.0000 0.74153  0.43239  0.73107  Biso   1.000  H
  H93      1.0000 0.68092  0.43668  0.82468  Biso   1.000  H
  H94      1.0000 0.40648  0.15699  0.73221  Biso   1.000  H
  H95      1.0000 0.32118  0.23109  0.71767  Biso   1.000  H
  N67      1.0000 0.43676  0.28314  0.73201  Biso   1.000  N
  H96      1.0000 0.69072  0.16371  0.61560  Biso   1.000  H
  H97      1.0000 0.60979  0.11821  0.67507  Biso   1.000  H
  N68      1.0000 0.60548  0.24711  0.68920  Biso   1.000  N
  C103     1.0000 0.39246  0.36642  0.75681  Biso   1.000  C
  C104     1.0000 0.54423  0.34451  0.80048  Biso   1.000  C
  C105     1.0000 0.66260  0.31434  0.68240  Biso   1.000  C
  C106     1.0000 0.53004  0.25859  0.76088  Biso   1.000  C
  O31      1.0000 0.31753  0.39816  0.74614  Biso   1.000  O
  H98      1.0000 0.55637  0.33140  0.86262  Biso   1.000  H
  O32      1.0000 0.73453  0.31767  0.63026  Biso   1.000  O
  H99      1.0000 0.53139  0.20593  0.80568  Biso   1.000  H
  Ne1      1.0000 0.50000  0.50000  0.49999  Biso   1.000  Ne
  He1      1.0000 0.29753  0.54505  0.56340  Biso   1.000  He
  He2      1.0000 0.71746  0.45225  0.43250  Biso   1.000  He
  Ar1      1.0000 0.50000  0.50000  0.49999  Biso   1.000  Ar
  Ne2      1.0000 0.00356  0.98676  0.00226  Biso   1.000  Ne
  He3      1.0000 0.97450  0.91525  0.22374  Biso   1.000  He
  He4      1.0000 0.03006  0.07895  0.76130  Biso   1.000  He
  Ar2      1.0000 0.00424  0.98696  0.00198  Biso   1.000  Ar
