data_image0
_cell_length_a       11.841
_cell_length_b       19.093
_cell_length_c       25.949
_cell_angle_alpha    90
_cell_angle_beta     93.8
_cell_angle_gamma    90

_symmetry_space_group_name_H-M    "P 1"
_symmetry_int_tables_number       1

loop_
  _symmetry_equiv_pos_as_xyz
  'x, y, z'

loop_
  _atom_site_label
  _atom_site_occupancy
  _atom_site_fract_x
  _atom_site_fract_y
  _atom_site_fract_z
  _atom_site_thermal_displace_type
  _atom_site_B_iso_or_equiv
  _atom_site_type_symbol
  C1       1.0000 0.65006  0.53669  0.50842  Biso   1.000  C
  C2       1.0000 0.60444  0.59200  0.47165  Biso   1.000  C
  O1       1.0000 0.69618  0.56811  0.55446  Biso   1.000  O
  H1       1.0000 0.71013  0.50898  0.49232  Biso   1.000  H
  H2       1.0000 0.58664  0.50490  0.51661  Biso   1.000  H
  O2       1.0000 0.50621  0.62342  0.49081  Biso   1.000  O
  H3       1.0000 0.58453  0.57089  0.43693  Biso   1.000  H
  H4       1.0000 0.66394  0.62861  0.46849  Biso   1.000  H
  C3       1.0000 0.74852  0.51762  0.58860  Biso   1.000  C
  C4       1.0000 0.45316  0.67192  0.45466  Biso   1.000  C
  C5       1.0000 0.82613  0.55528  0.62699  Biso   1.000  C
  H5       1.0000 0.79208  0.48321  0.56871  Biso   1.000  H
  H6       1.0000 0.68941  0.49238  0.60722  Biso   1.000  H
  C6       1.0000 0.50607  0.74389  0.45728  Biso   1.000  C
  H7       1.0000 0.45846  0.65291  0.41901  Biso   1.000  H
  H8       1.0000 0.37183  0.67658  0.46219  Biso   1.000  H
  O3       1.0000 0.76051  0.59084  0.66360  Biso   1.000  O
  H9       1.0000 0.87898  0.52140  0.64541  Biso   1.000  H
  H10      1.0000 0.87072  0.59058  0.60834  Biso   1.000  H
  O4       1.0000 0.46200  0.77898  0.50097  Biso   1.000  O
  H11      1.0000 0.59026  0.73959  0.46246  Biso   1.000  H
  H12      1.0000 0.48615  0.77070  0.42480  Biso   1.000  H
  C7       1.0000 0.80784  0.64924  0.68767  Biso   1.000  C
  C8       1.0000 0.50453  0.84340  0.51468  Biso   1.000  C
  C9       1.0000 0.73822  0.68213  0.72181  Biso   1.000  C
  C10      1.0000 0.91310  0.67622  0.67859  Biso   1.000  C
  C11      1.0000 0.59897  0.87435  0.49448  Biso   1.000  C
  C12      1.0000 0.44880  0.87781  0.55314  Biso   1.000  C
  C13      1.0000 0.77429  0.74409  0.74510  Biso   1.000  C
  H13      1.0000 0.66355  0.66118  0.72926  Biso   1.000  H
  C14      1.0000 0.94808  0.73901  0.70199  Biso   1.000  C
  H14      1.0000 0.96353  0.65081  0.65542  Biso   1.000  H
  C15      1.0000 0.63796  0.93862  0.51406  Biso   1.000  C
  H15      1.0000 0.63803  0.85052  0.46628  Biso   1.000  H
  C16      1.0000 0.48963  0.94103  0.57261  Biso   1.000  C
  H16      1.0000 0.37931  0.85670  0.56662  Biso   1.000  H
  C17      1.0000 0.87951  0.77342  0.73517  Biso   1.000  C
  O5       1.0000 0.71229  0.78332  0.77696  Biso   1.000  O
  C18      1.0000 0.05912  0.77044  0.68909  Biso   1.000  C
  C19      1.0000 0.73845  0.97109  0.49135  Biso   1.000  C
  C20      1.0000 0.58519  0.97261  0.55369  Biso   1.000  C
  O6       1.0000 0.43111  0.96863  0.61162  Biso   1.000  O
  H17      1.0000 0.90441  0.81847  0.75193  Biso   1.000  H
  C21      1.0000 0.60496  0.75598  0.79098  Biso   1.000  C
  O7       1.0000 0.04336  0.79437  0.63468  Biso   1.000  O
  H18      1.0000 0.12055  0.73446  0.69276  Biso   1.000  H
  H19      1.0000 0.07888  0.81098  0.71234  Biso   1.000  H
  O8       1.0000 0.83675  0.92736  0.50645  Biso   1.000  O
  H20      1.0000 0.72602  0.97261  0.45288  Biso   1.000  H
  H21      1.0000 0.75039  0.01975  0.50494  Biso   1.000  H
  H22      1.0000 0.61501  0.01791  0.56828  Biso   1.000  H
  C22      1.0000 0.47614  0.02923  0.63962  Biso   1.000  C
  C23      1.0000 0.54756  0.81480  0.81736  Biso   1.000  C
  H23      1.0000 0.61765  0.71534  0.81500  Biso   1.000  H
  H24      1.0000 0.55816  0.74069  0.75954  Biso   1.000  H
  C24      1.0000 0.13363  0.79018  0.60722  Biso   1.000  C
  C25      1.0000 0.92313  0.93212  0.47671  Biso   1.000  C
  C26      1.0000 0.41484  0.03551  0.68794  Biso   1.000  C
  H25      1.0000 0.55840  0.02221  0.64951  Biso   1.000  H
  H26      1.0000 0.46590  0.07228  0.61795  Biso   1.000  H
  O9       1.0000 0.50847  0.86456  0.77962  Biso   1.000  O
  H27      1.0000 0.48205  0.79626  0.83559  Biso   1.000  H
  H28      1.0000 0.60270  0.83774  0.84289  Biso   1.000  H
  C27      1.0000 0.11309  0.81475  0.55245  Biso   1.000  C
  O10      1.0000 0.22530  0.76808  0.62321  Biso   1.000  O
  O11      1.0000 0.92731  0.97240  0.44091  Biso   1.000  O
  C28      1.0000 0.01697  0.88184  0.49189  Biso   1.000  C
  O12      1.0000 0.47148  0.98130  0.72382  Biso   1.000  O
  O13      1.0000 0.37372  0.97350  0.71300  Biso   1.000  O
  H29      1.0000 0.33320  0.02373  0.67998  Biso   1.000  H
  H30      1.0000 0.42092  0.08370  0.70308  Biso   1.000  H
  C29      1.0000 0.45961  0.92416  0.80141  Biso   1.000  C
  N1       1.0000 0.02560  0.85775  0.54028  Biso   1.000  N
  C30      1.0000 0.18964  0.79265  0.51727  Biso   1.000  C
  C31      1.0000 0.09105  0.86435  0.45423  Biso   1.000  C
  C32      1.0000 0.40832  0.97072  0.76286  Biso   1.000  C
  H31      1.0000 0.40186  0.90845  0.82535  Biso   1.000  H
  H32      1.0000 0.52042  0.95113  0.82122  Biso   1.000  H
  C33      1.0000 0.17765  0.81747  0.46725  Biso   1.000  C
  H33      1.0000 0.25257  0.75991  0.52835  Biso   1.000  H
  H34      1.0000 0.08134  0.88498  0.41878  Biso   1.000  H
  H35      1.0000 0.22997  0.80186  0.44083  Biso   1.000  H
  C34      1.0000 0.34983  0.46331  0.49158  Biso   1.000  C
  O14      1.0000 0.30362  0.43189  0.44554  Biso   1.000  O
  C35      1.0000 0.39546  0.40800  0.52835  Biso   1.000  C
  H36      1.0000 0.28976  0.49102  0.50769  Biso   1.000  H
  H37      1.0000 0.41325  0.49510  0.48339  Biso   1.000  H
  C36      1.0000 0.25137  0.48238  0.41136  Biso   1.000  C
  O15      1.0000 0.49360  0.37658  0.50919  Biso   1.000  O
  H38      1.0000 0.41528  0.42911  0.56307  Biso   1.000  H
  H39      1.0000 0.33596  0.37139  0.53152  Biso   1.000  H
  C37      1.0000 0.17376  0.44472  0.37301  Biso   1.000  C
  H40      1.0000 0.20772  0.51679  0.43125  Biso   1.000  H
  H41      1.0000 0.31040  0.50762  0.39279  Biso   1.000  H
  C38      1.0000 0.54673  0.32808  0.54534  Biso   1.000  C
  O16      1.0000 0.23930  0.40916  0.33640  Biso   1.000  O
  H42      1.0000 0.12083  0.47860  0.35459  Biso   1.000  H
  H43      1.0000 0.12918  0.40942  0.39167  Biso   1.000  H
  C39      1.0000 0.49382  0.25611  0.54272  Biso   1.000  C
  H44      1.0000 0.54144  0.34709  0.58099  Biso   1.000  H
  H45      1.0000 0.62806  0.32342  0.53777  Biso   1.000  H
  C40      1.0000 0.19206  0.35076  0.31234  Biso   1.000  C
  O17      1.0000 0.53789  0.22102  0.49904  Biso   1.000  O
  H46      1.0000 0.40962  0.26041  0.53750  Biso   1.000  H
  H47      1.0000 0.51374  0.22930  0.57520  Biso   1.000  H
  C41      1.0000 0.26167  0.31787  0.27819  Biso   1.000  C
  C42      1.0000 0.08671  0.32378  0.32141  Biso   1.000  C
  C43      1.0000 0.49537  0.15660  0.48532  Biso   1.000  C
  C44      1.0000 0.22560  0.25591  0.25491  Biso   1.000  C
  H48      1.0000 0.33626  0.33882  0.27074  Biso   1.000  H
  C45      1.0000 0.05173  0.26099  0.29801  Biso   1.000  C
  H49      1.0000 0.03637  0.34919  0.34459  Biso   1.000  H
  C46      1.0000 0.55101  0.12219  0.44686  Biso   1.000  C
  C47      1.0000 0.40093  0.12565  0.50552  Biso   1.000  C
  C48      1.0000 0.12038  0.22658  0.26483  Biso   1.000  C
  O18      1.0000 0.28752  0.21668  0.22304  Biso   1.000  O
  C49      1.0000 0.94077  0.22956  0.31091  Biso   1.000  C
  C50      1.0000 0.51026  0.05897  0.42739  Biso   1.000  C
  H50      1.0000 0.62058  0.14330  0.43338  Biso   1.000  H
  C51      1.0000 0.36193  0.06138  0.48590  Biso   1.000  C
  H51      1.0000 0.36186  0.14948  0.53368  Biso   1.000  H
  H52      1.0000 0.09548  0.18153  0.24803  Biso   1.000  H
  C52      1.0000 0.39485  0.24402  0.20898  Biso   1.000  C
  O19      1.0000 0.95653  0.20563  0.36533  Biso   1.000  O
  H53      1.0000 0.87935  0.26554  0.30724  Biso   1.000  H
  H54      1.0000 0.92093  0.18902  0.28766  Biso   1.000  H
  O20      1.0000 0.56878  0.03137  0.38838  Biso   1.000  O
  C53      1.0000 0.41462  0.02739  0.44632  Biso   1.000  C
  C54      1.0000 0.26144  0.02891  0.50865  Biso   1.000  C
  C55      1.0000 0.45225  0.18520  0.18264  Biso   1.000  C
  H55      1.0000 0.38216  0.28466  0.18500  Biso   1.000  H
  H56      1.0000 0.44165  0.25931  0.24046  Biso   1.000  H
  C56      1.0000 0.86627  0.20982  0.39279  Biso   1.000  C
  C57      1.0000 0.52375  0.97077  0.36038  Biso   1.000  C
  H57      1.0000 0.38480  0.98209  0.43172  Biso   1.000  H
  O21      1.0000 0.16314  0.07264  0.49355  Biso   1.000  O
  H58      1.0000 0.27379  0.02739  0.54712  Biso   1.000  H
  H59      1.0000 0.24942  0.98025  0.49506  Biso   1.000  H
  O22      1.0000 0.49134  0.13544  0.22038  Biso   1.000  O
  H60      1.0000 0.51775  0.20374  0.16438  Biso   1.000  H
  H61      1.0000 0.39719  0.16226  0.15708  Biso   1.000  H
  C58      1.0000 0.88672  0.18525  0.44755  Biso   1.000  C
  O23      1.0000 0.77451  0.23192  0.37680  Biso   1.000  O
  C59      1.0000 0.58506  0.96449  0.31207  Biso   1.000  C
  H62      1.0000 0.44141  0.97779  0.35050  Biso   1.000  H
  H63      1.0000 0.53391  0.92772  0.38205  Biso   1.000  H
  C60      1.0000 0.07676  0.06788  0.52329  Biso   1.000  C
  C61      1.0000 0.54029  0.07584  0.19859  Biso   1.000  C
  C62      1.0000 0.81025  0.20735  0.48274  Biso   1.000  C
  N2       1.0000 0.97420  0.14225  0.45968  Biso   1.000  N
  O24      1.0000 0.52833  0.01870  0.27619  Biso   1.000  O
  O25      1.0000 0.62618  0.02650  0.28700  Biso   1.000  O
  H64      1.0000 0.66669  0.97627  0.31998  Biso   1.000  H
  H65      1.0000 0.57897  0.91630  0.29693  Biso   1.000  H
  C63      1.0000 0.98292  0.11816  0.50807  Biso   1.000  C
  O26      1.0000 0.07258  0.02760  0.55905  Biso   1.000  O
  C64      1.0000 0.59157  0.02928  0.23710  Biso   1.000  C
  H66      1.0000 0.59795  0.09155  0.17461  Biso   1.000  H
  H67      1.0000 0.47947  0.04887  0.17878  Biso   1.000  H
  C65      1.0000 0.82224  0.18253  0.53275  Biso   1.000  C
  H68      1.0000 0.74733  0.24009  0.47165  Biso   1.000  H
  C66      1.0000 0.90884  0.13565  0.54577  Biso   1.000  C
  H69      1.0000 0.76992  0.19814  0.55917  Biso   1.000  H
  H70      1.0000 0.91855  0.11502  0.58122  Biso   1.000  H
  C67      1.0000 0.54019  0.42413  0.69860  Biso   1.000  C
  O27      1.0000 0.49133  0.36453  0.72038  Biso   1.000  O
  C68      1.0000 0.59147  0.47070  0.73710  Biso   1.000  C
  H71      1.0000 0.59794  0.40847  0.67461  Biso   1.000  H
  H72      1.0000 0.47938  0.45116  0.67878  Biso   1.000  H
  C69      1.0000 0.45224  0.31483  0.68264  Biso   1.000  C
  O28      1.0000 0.52832  0.48133  0.77619  Biso   1.000  O
  O29      1.0000 0.62608  0.47352  0.78700  Biso   1.000  O
  C70      1.0000 0.39475  0.25601  0.70898  Biso   1.000  C
  H73      1.0000 0.51774  0.29623  0.66438  Biso   1.000  H
  H74      1.0000 0.39710  0.33772  0.65708  Biso   1.000  H
  C71      1.0000 0.58496  0.53548  0.81203  Biso   1.000  C
  O30      1.0000 0.28751  0.28335  0.72304  Biso   1.000  O
  H75      1.0000 0.38206  0.21537  0.68500  Biso   1.000  H
  H76      1.0000 0.44155  0.24066  0.74046  Biso   1.000  H
  C72      1.0000 0.52366  0.52920  0.86038  Biso   1.000  C
  H77      1.0000 0.66660  0.52370  0.81998  Biso   1.000  H
  H78      1.0000 0.57888  0.58372  0.79693  Biso   1.000  H
  C73      1.0000 0.22551  0.24407  0.75491  Biso   1.000  C
  O31      1.0000 0.56868  0.46865  0.88838  Biso   1.000  O
  H79      1.0000 0.44140  0.52218  0.85050  Biso   1.000  H
  H80      1.0000 0.53390  0.57230  0.88205  Biso   1.000  H
  C74      1.0000 0.12029  0.27345  0.76483  Biso   1.000  C
  C75      1.0000 0.26157  0.18211  0.77820  Biso   1.000  C
  C76      1.0000 0.51017  0.44100  0.92739  Biso   1.000  C
  C77      1.0000 0.05171  0.23904  0.79797  Biso   1.000  C
  H81      1.0000 0.09538  0.31849  0.74803  Biso   1.000  H
  C78      1.0000 0.19196  0.14922  0.81230  Biso   1.000  C
  H82      1.0000 0.33616  0.16116  0.77074  Biso   1.000  H
  C79      1.0000 0.55100  0.37783  0.94686  Biso   1.000  C
  C80      1.0000 0.41453  0.47258  0.94632  Biso   1.000  C
  C81      1.0000 0.08670  0.17624  0.82141  Biso   1.000  C
  C82      1.0000 0.94068  0.27041  0.81091  Biso   1.000  C
  O32      1.0000 0.23929  0.09082  0.83640  Biso   1.000  O
  C83      1.0000 0.49527  0.34342  0.98533  Biso   1.000  C
  H83      1.0000 0.62049  0.35668  0.93338  Biso   1.000  H
  C84      1.0000 0.36184  0.43859  0.98590  Biso   1.000  C
  H84      1.0000 0.38479  0.51794  0.93168  Biso   1.000  H
  H85      1.0000 0.03626  0.15079  0.84455  Biso   1.000  H
  O33      1.0000 0.95643  0.29435  0.86529  Biso   1.000  O
  H86      1.0000 0.87925  0.23448  0.80724  Biso   1.000  H
  H87      1.0000 0.92092  0.31095  0.78766  Biso   1.000  H
  C85      1.0000 0.17366  0.05531  0.87301  Biso   1.000  C
  O34      1.0000 0.53780  0.27900  0.99904  Biso   1.000  O
  C86      1.0000 0.40100  0.37433  0.00552  Biso   1.000  C
  C87      1.0000 0.26152  0.47112  0.00865  Biso   1.000  C
  C88      1.0000 0.86617  0.29021  0.89279  Biso   1.000  C
  C89      1.0000 0.25127  0.01765  0.91136  Biso   1.000  C
  H88      1.0000 0.12074  0.02142  0.85459  Biso   1.000  H
  H89      1.0000 0.12908  0.09061  0.89167  Biso   1.000  H
  C90      1.0000 0.49389  0.24391  0.04272  Biso   1.000  C
  H90      1.0000 0.36193  0.35055  0.03368  Biso   1.000  H
  O35      1.0000 0.16305  0.42738  0.99355  Biso   1.000  O
  H91      1.0000 0.24932  0.51972  0.99506  Biso   1.000  H
  H92      1.0000 0.27394  0.47258  0.04712  Biso   1.000  H
  C91      1.0000 0.88663  0.31472  0.94755  Biso   1.000  C
  O36      1.0000 0.77442  0.26811  0.87680  Biso   1.000  O
  O37      1.0000 0.30353  0.06814  0.94554  Biso   1.000  O
  H93      1.0000 0.20763  0.98319  0.93125  Biso   1.000  H
  H94      1.0000 0.31039  0.99241  0.89279  Biso   1.000  H
  C92      1.0000 0.54681  0.17190  0.04534  Biso   1.000  C
  H95      1.0000 0.40970  0.23962  0.03750  Biso   1.000  H
  H96      1.0000 0.51381  0.27068  0.07520  Biso   1.000  H
  C93      1.0000 0.07683  0.43210  0.02329  Biso   1.000  C
  C94      1.0000 0.81016  0.29267  0.98274  Biso   1.000  C
  N3       1.0000 0.97419  0.35772  0.95968  Biso   1.000  N
  C95      1.0000 0.34974  0.03672  0.99158  Biso   1.000  C
  O38      1.0000 0.49375  0.12345  0.00919  Biso   1.000  O
  H97      1.0000 0.54151  0.15288  0.08099  Biso   1.000  H
  H98      1.0000 0.62813  0.17661  0.03777  Biso   1.000  H
  C96      1.0000 0.98299  0.38187  0.00807  Biso   1.000  C
  O39      1.0000 0.07265  0.47242  0.05906  Biso   1.000  O
  H99      1.0000 0.74723  0.25989  0.97165  Biso   1.000  H
  C97      1.0000 0.82232  0.31750  0.03275  Biso   1.000  C
  H100     1.0000 0.41316  0.00492  0.98339  Biso   1.000  H
  C98      1.0000 0.39553  0.09202  0.02835  Biso   1.000  C
  H101     1.0000 0.28983  0.00901  0.00765  Biso   1.000  H
  C99      1.0000 0.90891  0.36437  0.04577  Biso   1.000  C
  H102     1.0000 0.76999  0.30184  0.05917  Biso   1.000  H
  H103     1.0000 0.41544  0.07092  0.06307  Biso   1.000  H
  H104     1.0000 0.33603  0.12858  0.03148  Biso   1.000  H
  H105     1.0000 0.91862  0.38496  0.08122  Biso   1.000  H
  C100     1.0000 0.45962  0.57587  0.30141  Biso   1.000  C
  C101     1.0000 0.40833  0.52930  0.26286  Biso   1.000  C
  O40      1.0000 0.50856  0.63547  0.27962  Biso   1.000  O
  H106     1.0000 0.40195  0.59153  0.32535  Biso   1.000  H
  H107     1.0000 0.52043  0.54884  0.32122  Biso   1.000  H
  O41      1.0000 0.47157  0.51867  0.22381  Biso   1.000  O
  O42      1.0000 0.37381  0.52648  0.21300  Biso   1.000  O
  C102     1.0000 0.54765  0.68517  0.31736  Biso   1.000  C
  C103     1.0000 0.41485  0.46452  0.18793  Biso   1.000  C
  C104     1.0000 0.60506  0.74399  0.29102  Biso   1.000  C
  H108     1.0000 0.48215  0.70377  0.33563  Biso   1.000  H
  H109     1.0000 0.60271  0.66228  0.34293  Biso   1.000  H
  C105     1.0000 0.47615  0.47080  0.13962  Biso   1.000  C
  H110     1.0000 0.33330  0.47630  0.18002  Biso   1.000  H
  H111     1.0000 0.42093  0.41628  0.20307  Biso   1.000  H
  O43      1.0000 0.71238  0.71665  0.27696  Biso   1.000  O
  H112     1.0000 0.61775  0.78463  0.31500  Biso   1.000  H
  H113     1.0000 0.55826  0.75934  0.25954  Biso   1.000  H
  O44      1.0000 0.43121  0.53135  0.11162  Biso   1.000  O
  H114     1.0000 0.55849  0.47782  0.14951  Biso   1.000  H
  H115     1.0000 0.46599  0.42770  0.11795  Biso   1.000  H
  C106     1.0000 0.77439  0.75593  0.24510  Biso   1.000  C
  C107     1.0000 0.48973  0.55900  0.07261  Biso   1.000  C
  C108     1.0000 0.87961  0.72655  0.23517  Biso   1.000  C
  C109     1.0000 0.73824  0.81789  0.22181  Biso   1.000  C
  C110     1.0000 0.44890  0.62217  0.05314  Biso   1.000  C
  C111     1.0000 0.58528  0.52742  0.05368  Biso   1.000  C
  C112     1.0000 0.94818  0.76096  0.20199  Biso   1.000  C
  H116     1.0000 0.90451  0.68151  0.25193  Biso   1.000  H
  C113     1.0000 0.80785  0.85078  0.18766  Biso   1.000  C
  H117     1.0000 0.66365  0.83884  0.22926  Biso   1.000  H
  C114     1.0000 0.50462  0.65658  0.01468  Biso   1.000  C
  H118     1.0000 0.37941  0.64332  0.06662  Biso   1.000  H
  C115     1.0000 0.63797  0.56141  0.01410  Biso   1.000  C
  H119     1.0000 0.61510  0.48206  0.06828  Biso   1.000  H
  C116     1.0000 0.91319  0.82376  0.17859  Biso   1.000  C
  C117     1.0000 0.05922  0.72959  0.18909  Biso   1.000  C
  O45      1.0000 0.76061  0.90918  0.16360  Biso   1.000  O
  O46      1.0000 0.46209  0.72100  0.00097  Biso   1.000  O
  C118     1.0000 0.59881  0.62567  0.99448  Biso   1.000  C
  C119     1.0000 0.73838  0.52888  0.99135  Biso   1.000  C
  H120     1.0000 0.96362  0.84921  0.15542  Biso   1.000  H
  O47      1.0000 0.04346  0.70565  0.13468  Biso   1.000  O
  H121     1.0000 0.12056  0.76552  0.19276  Biso   1.000  H
  H122     1.0000 0.07898  0.68905  0.21234  Biso   1.000  H
  C120     1.0000 0.82615  0.94469  0.12699  Biso   1.000  C
  C121     1.0000 0.50592  0.75609  0.95728  Biso   1.000  C
  H123     1.0000 0.63795  0.64945  0.96628  Biso   1.000  H
  O48      1.0000 0.83676  0.57262  0.00645  Biso   1.000  O
  H124     1.0000 0.75049  0.48028  0.00494  Biso   1.000  H
  H125     1.0000 0.72595  0.52742  0.95288  Biso   1.000  H
  C122     1.0000 0.13372  0.70979  0.10721  Biso   1.000  C
  C123     1.0000 0.74862  0.98235  0.08864  Biso   1.000  C
  H126     1.0000 0.87907  0.97858  0.14541  Biso   1.000  H
  H127     1.0000 0.87081  0.90939  0.10833  Biso   1.000  H
  C124     1.0000 0.45300  0.82810  0.95466  Biso   1.000  C
  H128     1.0000 0.59011  0.76038  0.96250  Biso   1.000  H
  H129     1.0000 0.48608  0.72932  0.92480  Biso   1.000  H
  C125     1.0000 0.92306  0.56790  0.97671  Biso   1.000  C
  C126     1.0000 0.11318  0.68528  0.05245  Biso   1.000  C
  O49      1.0000 0.22539  0.73189  0.12320  Biso   1.000  O
  O50      1.0000 0.69628  0.93186  0.05446  Biso   1.000  O
  H130     1.0000 0.79218  0.01681  0.06875  Biso   1.000  H
  H131     1.0000 0.68950  0.00759  0.10721  Biso   1.000  H
  O51      1.0000 0.50614  0.87655  0.99081  Biso   1.000  O
  H132     1.0000 0.45838  0.84712  0.91901  Biso   1.000  H
  H133     1.0000 0.37176  0.82339  0.96223  Biso   1.000  H
  O52      1.0000 0.92716  0.52758  0.94095  Biso   1.000  O
  C127     1.0000 0.01682  0.61813  0.99193  Biso   1.000  C
  N4       1.0000 0.02570  0.64228  0.04028  Biso   1.000  N
  C128     1.0000 0.18974  0.70733  0.01726  Biso   1.000  C
  C129     1.0000 0.65007  0.96328  0.00842  Biso   1.000  C
  C130     1.0000 0.60436  0.90798  0.97165  Biso   1.000  C
  C131     1.0000 0.09098  0.63563  0.95423  Biso   1.000  C
  C132     1.0000 0.17758  0.68250  0.96725  Biso   1.000  C
  H134     1.0000 0.25258  0.74011  0.02835  Biso   1.000  H
  H135     1.0000 0.58674  0.99508  0.01661  Biso   1.000  H
  H136     1.0000 0.71006  0.99099  0.99231  Biso   1.000  H
  H137     1.0000 0.58446  0.92908  0.93693  Biso   1.000  H
  H138     1.0000 0.66386  0.87142  0.96848  Biso   1.000  H
  H139     1.0000 0.08127  0.61504  0.91878  Biso   1.000  H
  H140     1.0000 0.22982  0.69816  0.94083  Biso   1.000  H
  Ne1      1.0000 0.27199  0.19359  0.39514  Biso   1.000  Ne
  He1      1.0000 0.19393  0.26599  0.46653  Biso   1.000  He
  He2      1.0000 0.41989  0.17268  0.33363  Biso   1.000  He
  He3      1.0000 0.22021  0.14523  0.38016  Biso   1.000  He
  Ar1      1.0000 0.26575  0.19688  0.38979  Biso   1.000  Ar
  Ne2      1.0000 0.72791  0.69359  0.10486  Biso   1.000  Ne
  He4      1.0000 0.79992  0.61503  0.13008  Biso   1.000  He
  He5      1.0000 0.56212  0.68974  0.16569  Biso   1.000  He
  He6      1.0000 0.74554  0.75764  0.06990  Biso   1.000  He
  Ar2      1.0000 0.72372  0.69301  0.11426  Biso   1.000  Ar
  Ne3      1.0000 0.72787  0.80641  0.60486  Biso   1.000  Ne
  He7      1.0000 0.80347  0.88971  0.63187  Biso   1.000  He
  He8      1.0000 0.56923  0.81807  0.66635  Biso   1.000  He
  He9      1.0000 0.80527  0.73436  0.53397  Biso   1.000  He
  Ar3      1.0000 0.73411  0.80312  0.61020  Biso   1.000  Ar
  Ne4      1.0000 0.27195  0.30641  0.89513  Biso   1.000  Ne
  He10     1.0000 0.10105  0.18319  0.99139  Biso   1.000  He
  He11     1.0000 0.43767  0.31114  0.83399  Biso   1.000  He
  He12     1.0000 0.22507  0.34579  0.88291  Biso   1.000  He
  Ar4      1.0000 0.27258  0.30601  0.88675  Biso   1.000  Ar
