data_image0
_cell_length_a       18.042
_cell_length_b       28.495
_cell_length_c       21.53
_cell_angle_alpha    90
_cell_angle_beta     90
_cell_angle_gamma    90

_symmetry_space_group_name_H-M    "P 1"
_symmetry_int_tables_number       1

loop_
  _symmetry_equiv_pos_as_xyz
  'x, y, z'

loop_
  _atom_site_label
  _atom_site_occupancy
  _atom_site_fract_x
  _atom_site_fract_y
  _atom_site_fract_z
  _atom_site_thermal_displace_type
  _atom_site_B_iso_or_equiv
  _atom_site_type_symbol
  C1       1.0000 0.20264  0.41411  0.39178  Biso   1.000  C
  C2       1.0000 0.26510  0.38814  0.38453  Biso   1.000  C
  C3       1.0000 0.13757  0.39340  0.41491  Biso   1.000  C
  H1       1.0000 0.20292  0.44650  0.38110  Biso   1.000  H
  N1       1.0000 0.26560  0.34195  0.40005  Biso   1.000  N
  H2       1.0000 0.30872  0.40239  0.36851  Biso   1.000  H
  C4       1.0000 0.14189  0.34641  0.43251  Biso   1.000  C
  C5       1.0000 0.06668  0.41986  0.41825  Biso   1.000  C
  C6       1.0000 0.33300  0.31342  0.38481  Biso   1.000  C
  C7       1.0000 0.20663  0.32174  0.42383  Biso   1.000  C
  H3       1.0000 0.09999  0.33139  0.45049  Biso   1.000  H
  C8       1.0000 0.06607  0.46878  0.41979  Biso   1.000  C
  C9       1.0000 0.00000  0.39579  0.41705  Biso   1.000  C
  C10      1.0000 0.33810  0.30974  0.31449  Biso   1.000  C
  C11      1.0000 0.33816  0.30974  0.31449  Biso   1.000  C
  H4       1.0000 0.37790  0.32879  0.40158  Biso   1.000  H
  H5       1.0000 0.32879  0.28180  0.40339  Biso   1.000  H
  H6       1.0000 0.20874  0.28959  0.43530  Biso   1.000  H
  H7       1.0000 0.11163  0.48549  0.42062  Biso   1.000  H
  C12      1.0000 0.00000  0.49335  0.42011  Biso   1.000  C
  C13      1.0000 0.93332  0.41986  0.41825  Biso   1.000  C
  H8       1.0000 0.00000  0.36248  0.41542  Biso   1.000  H
  C14      1.0000 0.93338  0.41986  0.41825  Biso   1.000  C
  C15      1.0000 0.28605  0.28493  0.28216  Biso   1.000  C
  C16      1.0000 0.39358  0.33251  0.28193  Biso   1.000  C
  C17      1.0000 0.39364  0.33251  0.28193  Biso   1.000  C
  C18      1.0000 0.00000  0.54557  0.41765  Biso   1.000  C
  C19      1.0000 0.93399  0.46878  0.41979  Biso   1.000  C
  C20      1.0000 0.86243  0.39340  0.41491  Biso   1.000  C
  C21      1.0000 0.28605  0.28493  0.21784  Biso   1.000  C
  H9       1.0000 0.24953  0.26749  0.30399  Biso   1.000  H
  C22      1.0000 0.39358  0.33251  0.21807  Biso   1.000  C
  C23      1.0000 0.39364  0.33251  0.21807  Biso   1.000  C
  H10      1.0000 0.43188  0.34831  0.30381  Biso   1.000  H
  H11      1.0000 0.43194  0.34831  0.30381  Biso   1.000  H
  H12      1.0000 0.88843  0.48549  0.42062  Biso   1.000  H
  C24      1.0000 0.06540  0.57101  0.41630  Biso   1.000  C
  C25      1.0000 0.93460  0.57101  0.41630  Biso   1.000  C
  C26      1.0000 0.79736  0.41411  0.39178  Biso   1.000  C
  C27      1.0000 0.85816  0.34641  0.43251  Biso   1.000  C
  H13      1.0000 0.24953  0.26749  0.19601  Biso   1.000  H
  C28      1.0000 0.33810  0.30974  0.18551  Biso   1.000  C
  C29      1.0000 0.33816  0.30974  0.18551  Biso   1.000  C
  H14      1.0000 0.43188  0.34831  0.19619  Biso   1.000  H
  H15      1.0000 0.43194  0.34831  0.19619  Biso   1.000  H
  C30      1.0000 0.06402  0.61895  0.40790  Biso   1.000  C
  H16      1.0000 0.11152  0.55529  0.42118  Biso   1.000  H
  C31      1.0000 0.93598  0.61895  0.40790  Biso   1.000  C
  H17      1.0000 0.88848  0.55529  0.42118  Biso   1.000  H
  H18      1.0000 0.79708  0.44650  0.38110  Biso   1.000  H
  C32      1.0000 0.73490  0.38814  0.38453  Biso   1.000  C
  C33      1.0000 0.79337  0.32174  0.42383  Biso   1.000  C
  H19      1.0000 0.90001  0.33139  0.45049  Biso   1.000  H
  C34      1.0000 0.33300  0.31342  0.11519  Biso   1.000  C
  H20      1.0000 0.10930  0.63590  0.40632  Biso   1.000  H
  N2       1.0000 0.00000  0.64201  0.40200  Biso   1.000  N
  H21      1.0000 0.89070  0.63590  0.40632  Biso   1.000  H
  H22      1.0000 0.69128  0.40239  0.36851  Biso   1.000  H
  N3       1.0000 0.73440  0.34195  0.40005  Biso   1.000  N
  H23      1.0000 0.69133  0.40239  0.36851  Biso   1.000  H
  H24      1.0000 0.79132  0.28959  0.43530  Biso   1.000  H
  H25      1.0000 0.37790  0.32879  0.09842  Biso   1.000  H
  H26      1.0000 0.32879  0.28180  0.09661  Biso   1.000  H
  N4       1.0000 0.26560  0.34195  0.09995  Biso   1.000  N
  C35      1.0000 0.00000  0.69261  0.38500  Biso   1.000  C
  C36      1.0000 0.66700  0.31342  0.38481  Biso   1.000  C
  C37      1.0000 0.66705  0.31342  0.38481  Biso   1.000  C
  C38      1.0000 0.26510  0.38814  0.11551  Biso   1.000  C
  C39      1.0000 0.20663  0.32174  0.07617  Biso   1.000  C
  H27      1.0000 0.04451  0.70819  0.40232  Biso   1.000  H
  H28      1.0000 0.95549  0.70819  0.40232  Biso   1.000  H
  C40      1.0000 0.00000  0.69689  0.31431  Biso   1.000  C
  H29      1.0000 0.62210  0.32879  0.40158  Biso   1.000  H
  H30      1.0000 0.67121  0.28180  0.40339  Biso   1.000  H
  C41      1.0000 0.66190  0.30974  0.31449  Biso   1.000  C
  C42      1.0000 0.20264  0.41411  0.10822  Biso   1.000  C
  H31      1.0000 0.30872  0.40239  0.13149  Biso   1.000  H
  H32      1.0000 0.20874  0.28959  0.06470  Biso   1.000  H
  C43      1.0000 0.14189  0.34641  0.06749  Biso   1.000  C
  C44      1.0000 0.06601  0.69714  0.28184  Biso   1.000  C
  C45      1.0000 0.93399  0.69714  0.28184  Biso   1.000  C
  C46      1.0000 0.71395  0.28493  0.28216  Biso   1.000  C
  C47      1.0000 0.60642  0.33251  0.28193  Biso   1.000  C
  C48      1.0000 0.13757  0.39340  0.08509  Biso   1.000  C
  H33      1.0000 0.20292  0.44650  0.11890  Biso   1.000  H
  H34      1.0000 0.09999  0.33139  0.04951  Biso   1.000  H
  C49      1.0000 0.06601  0.69714  0.21816  Biso   1.000  C
  H35      1.0000 0.11174  0.69728  0.30381  Biso   1.000  H
  C50      1.0000 0.93399  0.69714  0.21816  Biso   1.000  C
  H36      1.0000 0.88832  0.69728  0.30381  Biso   1.000  H
  C51      1.0000 0.71395  0.28493  0.21784  Biso   1.000  C
  H37      1.0000 0.75053  0.26749  0.30399  Biso   1.000  H
  C52      1.0000 0.60642  0.33251  0.21807  Biso   1.000  C
  H38      1.0000 0.56812  0.34831  0.30381  Biso   1.000  H
  C53      1.0000 0.06668  0.41986  0.08175  Biso   1.000  C
  C54      1.0000 0.00000  0.69689  0.18569  Biso   1.000  C
  H39      1.0000 0.11174  0.69728  0.19619  Biso   1.000  H
  H40      1.0000 0.88832  0.69728  0.19619  Biso   1.000  H
  C55      1.0000 0.66190  0.30974  0.18551  Biso   1.000  C
  H41      1.0000 0.75053  0.26749  0.19601  Biso   1.000  H
  H42      1.0000 0.56812  0.34831  0.19619  Biso   1.000  H
  C56      1.0000 0.06607  0.46878  0.08021  Biso   1.000  C
  C57      1.0000 0.00000  0.39579  0.08295  Biso   1.000  C
  C58      1.0000 0.00000  0.69261  0.11500  Biso   1.000  C
  C59      1.0000 0.66700  0.31342  0.11519  Biso   1.000  C
  C60      1.0000 0.66705  0.31342  0.11519  Biso   1.000  C
  H43      1.0000 0.11163  0.48549  0.07938  Biso   1.000  H
  C61      1.0000 0.00000  0.49335  0.07989  Biso   1.000  C
  C62      1.0000 0.93332  0.41986  0.08175  Biso   1.000  C
  H44      1.0000 0.00000  0.36248  0.08458  Biso   1.000  H
  C63      1.0000 0.93338  0.41986  0.08175  Biso   1.000  C
  N5       1.0000 0.00000  0.64201  0.09800  Biso   1.000  N
  H45      1.0000 0.04451  0.70819  0.09768  Biso   1.000  H
  H46      1.0000 0.95549  0.70819  0.09768  Biso   1.000  H
  N6       1.0000 0.73440  0.34195  0.09995  Biso   1.000  N
  H47      1.0000 0.62210  0.32879  0.09842  Biso   1.000  H
  H48      1.0000 0.67121  0.28180  0.09661  Biso   1.000  H
  C64      1.0000 0.00000  0.54557  0.08235  Biso   1.000  C
  C65      1.0000 0.93399  0.46878  0.08021  Biso   1.000  C
  C66      1.0000 0.86243  0.39340  0.08509  Biso   1.000  C
  C67      1.0000 0.06402  0.61895  0.09210  Biso   1.000  C
  C68      1.0000 0.93598  0.61895  0.09210  Biso   1.000  C
  C69      1.0000 0.73490  0.38814  0.11551  Biso   1.000  C
  C70      1.0000 0.79337  0.32174  0.07617  Biso   1.000  C
  H49      1.0000 0.88843  0.48549  0.07938  Biso   1.000  H
  C71      1.0000 0.06540  0.57101  0.08370  Biso   1.000  C
  C72      1.0000 0.93460  0.57101  0.08370  Biso   1.000  C
  C73      1.0000 0.79736  0.41411  0.10822  Biso   1.000  C
  C74      1.0000 0.85816  0.34641  0.06749  Biso   1.000  C
  H50      1.0000 0.10930  0.63590  0.09368  Biso   1.000  H
  H51      1.0000 0.89070  0.63590  0.09368  Biso   1.000  H
  H52      1.0000 0.69128  0.40239  0.13149  Biso   1.000  H
  H53      1.0000 0.69133  0.40239  0.13149  Biso   1.000  H
  H54      1.0000 0.79132  0.28959  0.06470  Biso   1.000  H
  H55      1.0000 0.11152  0.55529  0.07882  Biso   1.000  H
  H56      1.0000 0.88848  0.55529  0.07882  Biso   1.000  H
  H57      1.0000 0.79708  0.44650  0.11890  Biso   1.000  H
  H58      1.0000 0.90001  0.33139  0.04951  Biso   1.000  H
  C75      1.0000 0.20264  0.58589  0.60822  Biso   1.000  C
  C76      1.0000 0.13757  0.60656  0.58509  Biso   1.000  C
  H59      1.0000 0.20292  0.55350  0.61890  Biso   1.000  H
  C77      1.0000 0.26510  0.61186  0.61551  Biso   1.000  C
  C78      1.0000 0.06668  0.58010  0.58175  Biso   1.000  C
  C79      1.0000 0.14189  0.65355  0.56749  Biso   1.000  C
  H60      1.0000 0.30872  0.59758  0.63149  Biso   1.000  H
  N7       1.0000 0.26560  0.65805  0.59995  Biso   1.000  N
  C80      1.0000 0.06607  0.53122  0.58021  Biso   1.000  C
  C81      1.0000 0.00000  0.60418  0.58295  Biso   1.000  C
  C82      1.0000 0.20663  0.67826  0.57617  Biso   1.000  C
  H61      1.0000 0.09999  0.66861  0.54951  Biso   1.000  H
  C83      1.0000 0.33300  0.68654  0.61519  Biso   1.000  C
  C84      1.0000 0.00000  0.50665  0.57989  Biso   1.000  C
  H62      1.0000 0.11163  0.51451  0.57942  Biso   1.000  H
  C85      1.0000 0.93332  0.58010  0.58175  Biso   1.000  C
  C86      1.0000 0.93338  0.58010  0.58175  Biso   1.000  C
  H63      1.0000 0.00000  0.63748  0.58458  Biso   1.000  H
  H64      1.0000 0.20874  0.71041  0.56470  Biso   1.000  H
  H65      1.0000 0.37790  0.67121  0.59842  Biso   1.000  H
  H66      1.0000 0.32879  0.71820  0.59661  Biso   1.000  H
  C87      1.0000 0.33810  0.69026  0.68551  Biso   1.000  C
  C88      1.0000 0.33816  0.69026  0.68551  Biso   1.000  C
  C89      1.0000 0.00000  0.45443  0.58235  Biso   1.000  C
  C90      1.0000 0.93399  0.53122  0.58021  Biso   1.000  C
  C91      1.0000 0.86243  0.60656  0.58509  Biso   1.000  C
  C92      1.0000 0.28605  0.71504  0.71784  Biso   1.000  C
  C93      1.0000 0.39358  0.66745  0.71811  Biso   1.000  C
  C94      1.0000 0.39364  0.66745  0.71811  Biso   1.000  C
  C95      1.0000 0.06540  0.42899  0.58370  Biso   1.000  C
  C96      1.0000 0.93460  0.42899  0.58370  Biso   1.000  C
  H67      1.0000 0.88843  0.51451  0.57942  Biso   1.000  H
  C97      1.0000 0.79736  0.58589  0.60822  Biso   1.000  C
  C98      1.0000 0.85816  0.65355  0.56749  Biso   1.000  C
  H68      1.0000 0.24953  0.73248  0.69601  Biso   1.000  H
  C99      1.0000 0.28605  0.71504  0.78216  Biso   1.000  C
  H69      1.0000 0.43188  0.65169  0.69619  Biso   1.000  H
  C100     1.0000 0.39358  0.66745  0.78193  Biso   1.000  C
  H70      1.0000 0.43194  0.65169  0.69619  Biso   1.000  H
  C101     1.0000 0.39364  0.66745  0.78193  Biso   1.000  C
  C102     1.0000 0.06402  0.38105  0.59210  Biso   1.000  C
  H71      1.0000 0.11152  0.44471  0.57882  Biso   1.000  H
  C103     1.0000 0.93598  0.38105  0.59210  Biso   1.000  C
  H72      1.0000 0.88848  0.44471  0.57882  Biso   1.000  H
  H73      1.0000 0.79708  0.55350  0.61890  Biso   1.000  H
  C104     1.0000 0.73490  0.61186  0.61551  Biso   1.000  C
  C105     1.0000 0.79337  0.67826  0.57617  Biso   1.000  C
  H74      1.0000 0.90001  0.66861  0.54951  Biso   1.000  H
  H75      1.0000 0.24953  0.73248  0.80399  Biso   1.000  H
  C106     1.0000 0.33810  0.69026  0.81449  Biso   1.000  C
  C107     1.0000 0.33816  0.69026  0.81449  Biso   1.000  C
  H76      1.0000 0.43188  0.65169  0.80381  Biso   1.000  H
  H77      1.0000 0.43194  0.65169  0.80381  Biso   1.000  H
  H78      1.0000 0.10930  0.36410  0.59368  Biso   1.000  H
  N8       1.0000 0.00000  0.35796  0.59800  Biso   1.000  N
  H79      1.0000 0.89070  0.36410  0.59368  Biso   1.000  H
  H80      1.0000 0.69128  0.59758  0.63149  Biso   1.000  H
  N9       1.0000 0.73440  0.65805  0.59995  Biso   1.000  N
  H81      1.0000 0.69133  0.59758  0.63149  Biso   1.000  H
  H82      1.0000 0.79132  0.71041  0.56470  Biso   1.000  H
  C108     1.0000 0.33300  0.68654  0.88481  Biso   1.000  C
  C109     1.0000 0.00000  0.30739  0.61500  Biso   1.000  C
  C110     1.0000 0.66700  0.68654  0.61519  Biso   1.000  C
  C111     1.0000 0.66705  0.68654  0.61519  Biso   1.000  C
  H83      1.0000 0.37790  0.67121  0.90163  Biso   1.000  H
  H84      1.0000 0.32879  0.71820  0.90339  Biso   1.000  H
  N10      1.0000 0.26560  0.65805  0.90005  Biso   1.000  N
  H85      1.0000 0.04451  0.29181  0.59772  Biso   1.000  H
  H86      1.0000 0.95549  0.29181  0.59772  Biso   1.000  H
  C112     1.0000 0.00000  0.30311  0.68569  Biso   1.000  C
  H87      1.0000 0.62210  0.67121  0.59842  Biso   1.000  H
  H88      1.0000 0.67121  0.71820  0.59661  Biso   1.000  H
  C113     1.0000 0.66190  0.69026  0.68551  Biso   1.000  C
  C114     1.0000 0.26510  0.61186  0.88453  Biso   1.000  C
  C115     1.0000 0.20663  0.67826  0.92383  Biso   1.000  C
  C116     1.0000 0.06601  0.30286  0.71816  Biso   1.000  C
  C117     1.0000 0.93399  0.30286  0.71816  Biso   1.000  C
  C118     1.0000 0.71395  0.71504  0.71784  Biso   1.000  C
  C119     1.0000 0.60642  0.66745  0.71811  Biso   1.000  C
  C120     1.0000 0.20264  0.58589  0.89178  Biso   1.000  C
  H89      1.0000 0.30872  0.59758  0.86851  Biso   1.000  H
  C121     1.0000 0.14189  0.65355  0.93251  Biso   1.000  C
  H90      1.0000 0.20874  0.71041  0.93530  Biso   1.000  H
  C122     1.0000 0.06601  0.30286  0.78184  Biso   1.000  C
  H91      1.0000 0.11174  0.30268  0.69619  Biso   1.000  H
  H92      1.0000 0.88832  0.30268  0.69619  Biso   1.000  H
  C123     1.0000 0.93399  0.30286  0.78184  Biso   1.000  C
  C124     1.0000 0.71395  0.71504  0.78216  Biso   1.000  C
  H93      1.0000 0.75053  0.73248  0.69601  Biso   1.000  H
  H94      1.0000 0.56812  0.65169  0.69619  Biso   1.000  H
  C125     1.0000 0.60642  0.66745  0.78193  Biso   1.000  C
  C126     1.0000 0.13757  0.60656  0.91491  Biso   1.000  C
  H95      1.0000 0.20292  0.55350  0.88110  Biso   1.000  H
  H96      1.0000 0.09999  0.66861  0.95049  Biso   1.000  H
  C127     1.0000 0.00000  0.30311  0.81431  Biso   1.000  C
  H97      1.0000 0.11174  0.30268  0.80381  Biso   1.000  H
  H98      1.0000 0.88832  0.30268  0.80381  Biso   1.000  H
  C128     1.0000 0.66190  0.69026  0.81449  Biso   1.000  C
  H99      1.0000 0.75053  0.73248  0.80399  Biso   1.000  H
  H100     1.0000 0.56812  0.65169  0.80381  Biso   1.000  H
  C129     1.0000 0.06668  0.58010  0.91825  Biso   1.000  C
  C130     1.0000 0.00000  0.30739  0.88500  Biso   1.000  C
  C131     1.0000 0.66700  0.68654  0.88481  Biso   1.000  C
  C132     1.0000 0.66705  0.68654  0.88481  Biso   1.000  C
  C133     1.0000 0.06607  0.53122  0.91979  Biso   1.000  C
  C134     1.0000 0.00000  0.60418  0.91705  Biso   1.000  C
  H101     1.0000 0.04451  0.29181  0.90232  Biso   1.000  H
  H102     1.0000 0.95549  0.29181  0.90232  Biso   1.000  H
  N11      1.0000 0.00000  0.35796  0.90200  Biso   1.000  N
  H103     1.0000 0.62210  0.67121  0.90163  Biso   1.000  H
  H104     1.0000 0.67121  0.71820  0.90339  Biso   1.000  H
  N12      1.0000 0.73440  0.65805  0.90005  Biso   1.000  N
  C135     1.0000 0.00000  0.50665  0.92011  Biso   1.000  C
  H105     1.0000 0.11163  0.51451  0.92062  Biso   1.000  H
  C136     1.0000 0.93332  0.58010  0.91825  Biso   1.000  C
  C137     1.0000 0.93338  0.58010  0.91825  Biso   1.000  C
  H106     1.0000 0.00000  0.63748  0.91542  Biso   1.000  H
  C138     1.0000 0.06402  0.38105  0.90790  Biso   1.000  C
  C139     1.0000 0.93598  0.38105  0.90790  Biso   1.000  C
  C140     1.0000 0.73490  0.61186  0.88453  Biso   1.000  C
  C141     1.0000 0.79337  0.67826  0.92383  Biso   1.000  C
  C142     1.0000 0.00000  0.45443  0.91765  Biso   1.000  C
  C143     1.0000 0.93399  0.53122  0.91979  Biso   1.000  C
  C144     1.0000 0.86243  0.60656  0.91491  Biso   1.000  C
  H107     1.0000 0.10930  0.36410  0.90632  Biso   1.000  H
  C145     1.0000 0.06540  0.42899  0.91630  Biso   1.000  C
  H108     1.0000 0.89070  0.36410  0.90632  Biso   1.000  H
  C146     1.0000 0.93460  0.42899  0.91630  Biso   1.000  C
  C147     1.0000 0.79736  0.58589  0.89178  Biso   1.000  C
  H109     1.0000 0.69128  0.59758  0.86851  Biso   1.000  H
  H110     1.0000 0.69133  0.59758  0.86851  Biso   1.000  H
  C148     1.0000 0.85816  0.65355  0.93251  Biso   1.000  C
  H111     1.0000 0.79132  0.71041  0.93530  Biso   1.000  H
  H112     1.0000 0.88843  0.51451  0.92062  Biso   1.000  H
  H113     1.0000 0.11152  0.44471  0.92123  Biso   1.000  H
  H114     1.0000 0.88848  0.44471  0.92123  Biso   1.000  H
  H115     1.0000 0.79708  0.55350  0.88110  Biso   1.000  H
  H116     1.0000 0.90001  0.66861  0.95049  Biso   1.000  H
  C149     1.0000 0.29337  0.17824  0.57617  Biso   1.000  C
  H117     1.0000 0.29132  0.21039  0.56470  Biso   1.000  H
  C150     1.0000 0.35816  0.15357  0.56749  Biso   1.000  C
  N13      1.0000 0.23440  0.15803  0.59995  Biso   1.000  N
  C151     1.0000 0.36243  0.10658  0.58509  Biso   1.000  C
  H118     1.0000 0.40001  0.16859  0.54951  Biso   1.000  H
  C152     1.0000 0.23490  0.11184  0.61551  Biso   1.000  C
  C153     1.0000 0.16705  0.18656  0.61519  Biso   1.000  C
  C154     1.0000 0.43332  0.08012  0.58175  Biso   1.000  C
  C155     1.0000 0.29736  0.08591  0.60822  Biso   1.000  C
  H119     1.0000 0.19128  0.09760  0.63149  Biso   1.000  H
  H120     1.0000 0.12210  0.17119  0.59842  Biso   1.000  H
  H121     1.0000 0.17121  0.21821  0.59661  Biso   1.000  H
  C156     1.0000 0.16190  0.19024  0.68551  Biso   1.000  C
  C157     1.0000 0.43399  0.03120  0.58021  Biso   1.000  C
  C158     1.0000 0.50000  0.10419  0.58295  Biso   1.000  C
  H122     1.0000 0.29708  0.05348  0.61890  Biso   1.000  H
  C159     1.0000 0.21395  0.21506  0.71784  Biso   1.000  C
  C160     1.0000 0.10642  0.16747  0.71811  Biso   1.000  C
  C161     1.0000 0.50000  0.00663  0.57989  Biso   1.000  C
  H123     1.0000 0.38843  0.01449  0.57942  Biso   1.000  H
  H124     1.0000 0.50000  0.13750  0.58458  Biso   1.000  H
  C162     1.0000 0.56668  0.08012  0.58175  Biso   1.000  C
  H125     1.0000 0.25053  0.23250  0.69601  Biso   1.000  H
  C163     1.0000 0.21395  0.21506  0.78216  Biso   1.000  C
  H126     1.0000 0.06812  0.15171  0.69619  Biso   1.000  H
  C164     1.0000 0.10642  0.16747  0.78193  Biso   1.000  C
  C165     1.0000 0.56607  0.03120  0.58021  Biso   1.000  C
  C166     1.0000 0.50000  0.95441  0.58235  Biso   1.000  C
  C167     1.0000 0.63757  0.10658  0.58509  Biso   1.000  C
  H127     1.0000 0.25053  0.23250  0.80399  Biso   1.000  H
  C168     1.0000 0.16190  0.19024  0.81449  Biso   1.000  C
  H128     1.0000 0.06812  0.15171  0.80381  Biso   1.000  H
  H129     1.0000 0.61163  0.01449  0.57942  Biso   1.000  H
  C169     1.0000 0.56540  0.92897  0.58370  Biso   1.000  C
  C170     1.0000 0.43460  0.92897  0.58370  Biso   1.000  C
  C171     1.0000 0.70264  0.08591  0.60822  Biso   1.000  C
  C172     1.0000 0.64189  0.15357  0.56749  Biso   1.000  C
  C173     1.0000 0.16705  0.18656  0.88481  Biso   1.000  C
  C174     1.0000 0.56402  0.88107  0.59210  Biso   1.000  C
  H130     1.0000 0.61152  0.94469  0.57882  Biso   1.000  H
  C175     1.0000 0.43598  0.88107  0.59210  Biso   1.000  C
  H131     1.0000 0.38848  0.94469  0.57882  Biso   1.000  H
  H132     1.0000 0.70292  0.05348  0.61890  Biso   1.000  H
  C176     1.0000 0.76510  0.11184  0.61551  Biso   1.000  C
  C177     1.0000 0.70663  0.17824  0.57617  Biso   1.000  C
  H133     1.0000 0.59999  0.16859  0.54951  Biso   1.000  H
  H134     1.0000 0.12210  0.17119  0.90163  Biso   1.000  H
  H135     1.0000 0.17121  0.21821  0.90339  Biso   1.000  H
  N14      1.0000 0.23440  0.15803  0.90005  Biso   1.000  N
  H136     1.0000 0.60930  0.86412  0.59368  Biso   1.000  H
  N15      1.0000 0.50000  0.85798  0.59800  Biso   1.000  N
  H137     1.0000 0.39070  0.86412  0.59368  Biso   1.000  H
  H138     1.0000 0.80872  0.09760  0.63149  Biso   1.000  H
  N16      1.0000 0.76560  0.15803  0.59995  Biso   1.000  N
  H139     1.0000 0.70874  0.21039  0.56470  Biso   1.000  H
  C178     1.0000 0.23490  0.11184  0.88453  Biso   1.000  C
  C179     1.0000 0.29337  0.17824  0.92383  Biso   1.000  C
  C180     1.0000 0.50000  0.80740  0.61500  Biso   1.000  C
  C181     1.0000 0.83300  0.18656  0.61519  Biso   1.000  C
  C182     1.0000 0.29736  0.08591  0.89178  Biso   1.000  C
  H140     1.0000 0.19128  0.09760  0.86851  Biso   1.000  H
  H141     1.0000 0.29132  0.21039  0.93530  Biso   1.000  H
  C183     1.0000 0.35816  0.15357  0.93251  Biso   1.000  C
  C184     1.0000 0.50000  0.80309  0.68569  Biso   1.000  C
  H142     1.0000 0.54451  0.79179  0.59772  Biso   1.000  H
  H143     1.0000 0.45549  0.79179  0.59772  Biso   1.000  H
  H144     1.0000 0.87790  0.17119  0.59842  Biso   1.000  H
  H145     1.0000 0.82879  0.21821  0.59661  Biso   1.000  H
  C185     1.0000 0.83816  0.19024  0.68551  Biso   1.000  C
  C186     1.0000 0.36243  0.10658  0.91491  Biso   1.000  C
  H146     1.0000 0.29708  0.05348  0.88110  Biso   1.000  H
  H147     1.0000 0.40001  0.16859  0.95049  Biso   1.000  H
  C187     1.0000 0.56601  0.80288  0.71816  Biso   1.000  C
  C188     1.0000 0.43399  0.80288  0.71816  Biso   1.000  C
  C189     1.0000 0.78605  0.21506  0.71784  Biso   1.000  C
  C190     1.0000 0.89364  0.16747  0.71811  Biso   1.000  C
  C191     1.0000 0.43332  0.08012  0.91825  Biso   1.000  C
  H148     1.0000 0.61168  0.80270  0.69619  Biso   1.000  H
  C192     1.0000 0.56601  0.80288  0.78184  Biso   1.000  C
  H149     1.0000 0.38832  0.80270  0.69619  Biso   1.000  H
  C193     1.0000 0.43399  0.80288  0.78184  Biso   1.000  C
  H150     1.0000 0.74953  0.23250  0.69601  Biso   1.000  H
  C194     1.0000 0.78605  0.21506  0.78216  Biso   1.000  C
  H151     1.0000 0.93194  0.15171  0.69619  Biso   1.000  H
  C195     1.0000 0.89364  0.16747  0.78193  Biso   1.000  C
  C196     1.0000 0.43399  0.03120  0.91979  Biso   1.000  C
  C197     1.0000 0.50000  0.10419  0.91705  Biso   1.000  C
  H152     1.0000 0.61168  0.80270  0.80381  Biso   1.000  H
  C198     1.0000 0.50000  0.80309  0.81431  Biso   1.000  C
  H153     1.0000 0.38832  0.80270  0.80381  Biso   1.000  H
  H154     1.0000 0.74953  0.23250  0.80399  Biso   1.000  H
  C199     1.0000 0.83816  0.19024  0.81449  Biso   1.000  C
  H155     1.0000 0.93194  0.15171  0.80381  Biso   1.000  H
  C200     1.0000 0.50000  0.00663  0.92011  Biso   1.000  C
  H156     1.0000 0.38843  0.01449  0.92062  Biso   1.000  H
  H157     1.0000 0.50000  0.13750  0.91542  Biso   1.000  H
  C201     1.0000 0.56668  0.08012  0.91825  Biso   1.000  C
  C202     1.0000 0.50000  0.80740  0.88500  Biso   1.000  C
  C203     1.0000 0.83300  0.18656  0.88481  Biso   1.000  C
  C204     1.0000 0.56607  0.03120  0.91979  Biso   1.000  C
  C205     1.0000 0.50000  0.95441  0.91765  Biso   1.000  C
  C206     1.0000 0.63757  0.10658  0.91491  Biso   1.000  C
  H158     1.0000 0.54451  0.79179  0.90232  Biso   1.000  H
  N17      1.0000 0.50000  0.85798  0.90200  Biso   1.000  N
  H159     1.0000 0.45549  0.79179  0.90232  Biso   1.000  H
  H160     1.0000 0.87790  0.17119  0.90163  Biso   1.000  H
  H161     1.0000 0.82879  0.21821  0.90339  Biso   1.000  H
  N18      1.0000 0.76560  0.15803  0.90005  Biso   1.000  N
  H162     1.0000 0.61163  0.01449  0.92062  Biso   1.000  H
  C207     1.0000 0.56540  0.92897  0.91630  Biso   1.000  C
  C208     1.0000 0.43460  0.92897  0.91630  Biso   1.000  C
  C209     1.0000 0.70264  0.08591  0.89178  Biso   1.000  C
  C210     1.0000 0.64189  0.15357  0.93251  Biso   1.000  C
  C211     1.0000 0.56402  0.88107  0.90790  Biso   1.000  C
  C212     1.0000 0.43598  0.88107  0.90790  Biso   1.000  C
  C213     1.0000 0.76510  0.11184  0.88453  Biso   1.000  C
  C214     1.0000 0.70663  0.17824  0.92383  Biso   1.000  C
  H163     1.0000 0.61152  0.94469  0.92123  Biso   1.000  H
  H164     1.0000 0.38848  0.94469  0.92123  Biso   1.000  H
  H165     1.0000 0.70292  0.05348  0.88110  Biso   1.000  H
  H166     1.0000 0.59999  0.16859  0.95049  Biso   1.000  H
  H167     1.0000 0.60930  0.86412  0.90632  Biso   1.000  H
  H168     1.0000 0.39070  0.86412  0.90632  Biso   1.000  H
  H169     1.0000 0.80872  0.09760  0.86851  Biso   1.000  H
  H170     1.0000 0.70874  0.21039  0.93530  Biso   1.000  H
  C215     1.0000 0.29337  0.82176  0.42383  Biso   1.000  C
  N19      1.0000 0.23440  0.84194  0.40005  Biso   1.000  N
  H171     1.0000 0.29132  0.78958  0.43530  Biso   1.000  H
  C216     1.0000 0.35816  0.84643  0.43251  Biso   1.000  C
  C217     1.0000 0.16705  0.81344  0.38481  Biso   1.000  C
  C218     1.0000 0.23490  0.88812  0.38453  Biso   1.000  C
  C219     1.0000 0.36243  0.89342  0.41491  Biso   1.000  C
  H172     1.0000 0.40001  0.83137  0.45049  Biso   1.000  H
  C220     1.0000 0.16190  0.80972  0.31449  Biso   1.000  C
  H173     1.0000 0.12210  0.82878  0.40158  Biso   1.000  H
  H174     1.0000 0.17121  0.78179  0.40339  Biso   1.000  H
  C221     1.0000 0.29736  0.91409  0.39178  Biso   1.000  C
  H175     1.0000 0.19128  0.90240  0.36851  Biso   1.000  H
  C222     1.0000 0.43332  0.91988  0.41825  Biso   1.000  C
  C223     1.0000 0.21395  0.78494  0.28216  Biso   1.000  C
  C224     1.0000 0.10642  0.83253  0.28193  Biso   1.000  C
  H176     1.0000 0.29708  0.94648  0.38110  Biso   1.000  H
  C225     1.0000 0.50000  0.89581  0.41705  Biso   1.000  C
  C226     1.0000 0.43399  0.96877  0.41979  Biso   1.000  C
  C227     1.0000 0.21395  0.78494  0.21784  Biso   1.000  C
  H177     1.0000 0.25053  0.76750  0.30399  Biso   1.000  H
  C228     1.0000 0.10642  0.83253  0.21807  Biso   1.000  C
  H178     1.0000 0.06812  0.84829  0.30381  Biso   1.000  H
  C229     1.0000 0.56668  0.91988  0.41825  Biso   1.000  C
  H179     1.0000 0.50000  0.86250  0.41542  Biso   1.000  H
  C230     1.0000 0.50000  0.99333  0.42011  Biso   1.000  C
  H180     1.0000 0.38843  0.98551  0.42062  Biso   1.000  H
  H181     1.0000 0.25053  0.76750  0.19601  Biso   1.000  H
  C231     1.0000 0.16190  0.80972  0.18551  Biso   1.000  C
  H182     1.0000 0.06812  0.84829  0.19619  Biso   1.000  H
  C232     1.0000 0.56607  0.96877  0.41979  Biso   1.000  C
  C233     1.0000 0.63757  0.89342  0.41491  Biso   1.000  C
  C234     1.0000 0.50000  0.04555  0.41765  Biso   1.000  C
  C235     1.0000 0.16705  0.81344  0.11519  Biso   1.000  C
  H183     1.0000 0.61163  0.98551  0.42062  Biso   1.000  H
  C236     1.0000 0.70264  0.91409  0.39178  Biso   1.000  C
  C237     1.0000 0.64189  0.84643  0.43251  Biso   1.000  C
  C238     1.0000 0.43460  0.07099  0.41630  Biso   1.000  C
  C239     1.0000 0.56540  0.07099  0.41630  Biso   1.000  C
  H184     1.0000 0.12210  0.82878  0.09842  Biso   1.000  H
  H185     1.0000 0.17121  0.78179  0.09661  Biso   1.000  H
  N20      1.0000 0.23440  0.84194  0.09995  Biso   1.000  N
  H186     1.0000 0.70292  0.94648  0.38110  Biso   1.000  H
  C240     1.0000 0.76510  0.88812  0.38453  Biso   1.000  C
  C241     1.0000 0.70663  0.82176  0.42383  Biso   1.000  C
  H187     1.0000 0.59999  0.83137  0.45049  Biso   1.000  H
  C242     1.0000 0.43598  0.11893  0.40790  Biso   1.000  C
  H188     1.0000 0.38848  0.05527  0.42118  Biso   1.000  H
  C243     1.0000 0.56402  0.11893  0.40790  Biso   1.000  C
  H189     1.0000 0.61152  0.05527  0.42118  Biso   1.000  H
  C244     1.0000 0.23490  0.88812  0.11551  Biso   1.000  C
  C245     1.0000 0.29337  0.82176  0.07617  Biso   1.000  C
  H190     1.0000 0.80872  0.90240  0.36851  Biso   1.000  H
  N21      1.0000 0.76560  0.84194  0.40005  Biso   1.000  N
  H191     1.0000 0.70874  0.78958  0.43530  Biso   1.000  H
  H192     1.0000 0.39070  0.13588  0.40632  Biso   1.000  H
  N22      1.0000 0.50000  0.14202  0.40200  Biso   1.000  N
  H193     1.0000 0.60930  0.13588  0.40632  Biso   1.000  H
  C246     1.0000 0.29736  0.91409  0.10822  Biso   1.000  C
  H194     1.0000 0.19128  0.90240  0.13149  Biso   1.000  H
  H195     1.0000 0.29132  0.78958  0.06470  Biso   1.000  H
  C247     1.0000 0.35816  0.84643  0.06749  Biso   1.000  C
  C248     1.0000 0.83300  0.81344  0.38481  Biso   1.000  C
  C249     1.0000 0.50000  0.19260  0.38500  Biso   1.000  C
  C250     1.0000 0.36243  0.89342  0.08509  Biso   1.000  C
  H196     1.0000 0.29708  0.94648  0.11890  Biso   1.000  H
  H197     1.0000 0.40001  0.83137  0.04951  Biso   1.000  H
  H198     1.0000 0.87790  0.82878  0.40158  Biso   1.000  H
  H199     1.0000 0.82879  0.78179  0.40339  Biso   1.000  H
  C251     1.0000 0.83816  0.80972  0.31449  Biso   1.000  C
  C252     1.0000 0.50000  0.19688  0.31431  Biso   1.000  C
  H200     1.0000 0.45549  0.20818  0.40232  Biso   1.000  H
  H201     1.0000 0.54451  0.20818  0.40232  Biso   1.000  H
  C253     1.0000 0.43332  0.91988  0.08175  Biso   1.000  C
  C254     1.0000 0.78605  0.78494  0.28216  Biso   1.000  C
  C255     1.0000 0.89364  0.83253  0.28193  Biso   1.000  C
  C256     1.0000 0.43399  0.19712  0.28184  Biso   1.000  C
  C257     1.0000 0.56601  0.19712  0.28184  Biso   1.000  C
  C258     1.0000 0.50000  0.89581  0.08295  Biso   1.000  C
  C259     1.0000 0.43399  0.96877  0.08021  Biso   1.000  C
  C260     1.0000 0.78605  0.78494  0.21784  Biso   1.000  C
  H202     1.0000 0.74953  0.76750  0.30399  Biso   1.000  H
  C261     1.0000 0.89364  0.83253  0.21807  Biso   1.000  C
  H203     1.0000 0.93194  0.84829  0.30381  Biso   1.000  H
  C262     1.0000 0.43399  0.19712  0.21816  Biso   1.000  C
  H204     1.0000 0.38832  0.19730  0.30381  Biso   1.000  H
  C263     1.0000 0.56601  0.19712  0.21816  Biso   1.000  C
  H205     1.0000 0.61168  0.19730  0.30381  Biso   1.000  H
  C264     1.0000 0.56668  0.91988  0.08175  Biso   1.000  C
  H206     1.0000 0.50000  0.86250  0.08458  Biso   1.000  H
  C265     1.0000 0.50000  0.99333  0.07989  Biso   1.000  C
  H207     1.0000 0.38843  0.98551  0.07938  Biso   1.000  H
  C266     1.0000 0.83816  0.80972  0.18551  Biso   1.000  C
  H208     1.0000 0.74953  0.76750  0.19601  Biso   1.000  H
  H209     1.0000 0.93194  0.84829  0.19619  Biso   1.000  H
  C267     1.0000 0.50000  0.19688  0.18569  Biso   1.000  C
  H210     1.0000 0.38832  0.19730  0.19619  Biso   1.000  H
  H211     1.0000 0.61168  0.19730  0.19619  Biso   1.000  H
  C268     1.0000 0.56607  0.96877  0.08021  Biso   1.000  C
  C269     1.0000 0.63757  0.89342  0.08509  Biso   1.000  C
  C270     1.0000 0.50000  0.04555  0.08235  Biso   1.000  C
  C271     1.0000 0.83300  0.81344  0.11519  Biso   1.000  C
  C272     1.0000 0.50000  0.19260  0.11500  Biso   1.000  C
  H212     1.0000 0.61163  0.98551  0.07938  Biso   1.000  H
  C273     1.0000 0.70264  0.91409  0.10822  Biso   1.000  C
  C274     1.0000 0.64189  0.84643  0.06749  Biso   1.000  C
  C275     1.0000 0.43460  0.07099  0.08370  Biso   1.000  C
  C276     1.0000 0.56540  0.07099  0.08370  Biso   1.000  C
  N23      1.0000 0.76560  0.84194  0.09995  Biso   1.000  N
  H213     1.0000 0.87790  0.82878  0.09842  Biso   1.000  H
  H214     1.0000 0.82879  0.78179  0.09661  Biso   1.000  H
  N24      1.0000 0.50000  0.14202  0.09800  Biso   1.000  N
  H215     1.0000 0.45549  0.20818  0.09768  Biso   1.000  H
  H216     1.0000 0.54451  0.20818  0.09768  Biso   1.000  H
  H217     1.0000 0.70292  0.94648  0.11890  Biso   1.000  H
  C277     1.0000 0.76510  0.88812  0.11551  Biso   1.000  C
  C278     1.0000 0.70663  0.82176  0.07617  Biso   1.000  C
  H218     1.0000 0.59999  0.83137  0.04951  Biso   1.000  H
  C279     1.0000 0.43598  0.11893  0.09210  Biso   1.000  C
  H219     1.0000 0.38848  0.05527  0.07882  Biso   1.000  H
  C280     1.0000 0.56402  0.11893  0.09210  Biso   1.000  C
  H220     1.0000 0.61152  0.05527  0.07882  Biso   1.000  H
  H221     1.0000 0.80872  0.90240  0.13149  Biso   1.000  H
  H222     1.0000 0.70874  0.78958  0.06470  Biso   1.000  H
  H223     1.0000 0.39070  0.13588  0.09368  Biso   1.000  H
  H224     1.0000 0.60930  0.13588  0.09368  Biso   1.000  H
