data_image0
_cell_length_a       18.103
_cell_length_b       28.586
_cell_length_c       21.373
_cell_angle_alpha    90
_cell_angle_beta     90
_cell_angle_gamma    90

_symmetry_space_group_name_H-M    "P 1"
_symmetry_int_tables_number       1

loop_
  _symmetry_equiv_pos_as_xyz
  'x, y, z'

loop_
  _atom_site_label
  _atom_site_occupancy
  _atom_site_fract_x
  _atom_site_fract_y
  _atom_site_fract_z
  _atom_site_thermal_displace_type
  _atom_site_B_iso_or_equiv
  _atom_site_type_symbol
  C1       1.0000 0.55262  0.42741  0.41810  Biso   1.000  C
  N1       1.0000 0.49268  0.40674  0.39962  Biso   1.000  N
  C2       1.0000 0.61791  0.40310  0.42549  Biso   1.000  C
  H1       1.0000 0.55140  0.46002  0.42671  Biso   1.000  H
  C3       1.0000 0.42490  0.43469  0.38558  Biso   1.000  C
  C4       1.0000 0.49279  0.36032  0.38759  Biso   1.000  C
  C5       1.0000 0.62200  0.35594  0.41211  Biso   1.000  C
  H2       1.0000 0.66072  0.41909  0.43990  Biso   1.000  H
  C6       1.0000 0.41750  0.43836  0.31512  Biso   1.000  C
  H3       1.0000 0.42899  0.46631  0.40430  Biso   1.000  H
  H4       1.0000 0.38082  0.41909  0.40350  Biso   1.000  H
  H5       1.0000 0.44849  0.34520  0.37491  Biso   1.000  H
  C7       1.0000 0.55582  0.33509  0.39372  Biso   1.000  C
  C8       1.0000 0.69232  0.32988  0.41562  Biso   1.000  C
  C9       1.0000 0.36773  0.41150  0.28208  Biso   1.000  C
  C10      1.0000 0.46291  0.46750  0.28218  Biso   1.000  C
  H6       1.0000 0.55488  0.30249  0.38521  Biso   1.000  H
  C11      1.0000 0.69320  0.28133  0.41730  Biso   1.000  C
  C12      1.0000 0.75899  0.35360  0.41501  Biso   1.000  C
  H7       1.0000 0.33293  0.39281  0.30408  Biso   1.000  H
  C13      1.0000 0.36773  0.41150  0.21789  Biso   1.000  C
  H8       1.0000 0.49500  0.48800  0.30398  Biso   1.000  H
  C14      1.0000 0.46291  0.46750  0.21780  Biso   1.000  C
  H9       1.0000 0.64779  0.26471  0.41721  Biso   1.000  H
  C15      1.0000 0.76081  0.25596  0.41917  Biso   1.000  C
  C16      1.0000 0.82622  0.32971  0.41721  Biso   1.000  C
  H10      1.0000 0.75899  0.38680  0.41300  Biso   1.000  H
  C17      1.0000 0.41750  0.43836  0.18491  Biso   1.000  C
  H11      1.0000 0.33293  0.39281  0.19590  Biso   1.000  H
  H12      1.0000 0.49500  0.48800  0.19599  Biso   1.000  H
  C18      1.0000 0.82583  0.28147  0.41974  Biso   1.000  C
  C19      1.0000 0.76032  0.20472  0.41768  Biso   1.000  C
  C20      1.0000 0.89703  0.35636  0.41440  Biso   1.000  C
  C21      1.0000 0.42490  0.43469  0.11440  Biso   1.000  C
  H13      1.0000 0.87162  0.26530  0.42189  Biso   1.000  H
  C22      1.0000 0.69469  0.17911  0.41688  Biso   1.000  C
  C23      1.0000 0.82511  0.17862  0.41580  Biso   1.000  C
  C24      1.0000 0.96133  0.33646  0.39082  Biso   1.000  C
  C25      1.0000 0.90024  0.40296  0.43251  Biso   1.000  C
  N2       1.0000 0.49268  0.40674  0.10036  Biso   1.000  N
  H14      1.0000 0.42899  0.46631  0.09568  Biso   1.000  H
  H15      1.0000 0.38082  0.41909  0.09648  Biso   1.000  H
  H16      1.0000 0.64873  0.19482  0.42100  Biso   1.000  H
  C26      1.0000 0.69618  0.13080  0.41019  Biso   1.000  C
  C27      1.0000 0.82373  0.13160  0.40762  Biso   1.000  C
  H17      1.0000 0.87129  0.19412  0.42020  Biso   1.000  H
  H18      1.0000 0.96172  0.30441  0.37922  Biso   1.000  H
  C28      1.0000 0.02370  0.36263  0.38418  Biso   1.000  C
  C29      1.0000 0.96481  0.42801  0.42568  Biso   1.000  C
  H19      1.0000 0.85781  0.41762  0.44968  Biso   1.000  H
  C30      1.0000 0.49279  0.36032  0.11238  Biso   1.000  C
  C31      1.0000 0.55262  0.42741  0.08188  Biso   1.000  C
  N3       1.0000 0.75921  0.10768  0.40289  Biso   1.000  N
  H20      1.0000 0.65100  0.11390  0.41089  Biso   1.000  H
  H21      1.0000 0.86903  0.11492  0.40518  Biso   1.000  H
  N4       1.0000 0.02431  0.40800  0.40088  Biso   1.000  N
  H22      1.0000 0.06723  0.34870  0.36771  Biso   1.000  H
  H23      1.0000 0.96680  0.45981  0.43868  Biso   1.000  H
  H24      1.0000 0.44849  0.34520  0.12511  Biso   1.000  H
  C32      1.0000 0.55582  0.33509  0.10630  Biso   1.000  C
  C33      1.0000 0.61791  0.40310  0.07449  Biso   1.000  C
  H25      1.0000 0.55140  0.46002  0.07332  Biso   1.000  H
  C34      1.0000 0.75960  0.05811  0.38478  Biso   1.000  C
  C35      1.0000 0.09103  0.43710  0.38581  Biso   1.000  C
  H26      1.0000 0.55488  0.30249  0.11482  Biso   1.000  H
  C36      1.0000 0.62200  0.35594  0.08791  Biso   1.000  C
  H27      1.0000 0.66072  0.41909  0.06012  Biso   1.000  H
  H28      1.0000 0.71541  0.04250  0.40238  Biso   1.000  H
  H29      1.0000 0.80390  0.04271  0.40238  Biso   1.000  H
  C37      1.0000 0.75960  0.05310  0.31568  Biso   1.000  C
  H30      1.0000 0.13611  0.42220  0.40270  Biso   1.000  H
  H31      1.0000 0.08612  0.46859  0.40472  Biso   1.000  H
  C38      1.0000 0.09573  0.44092  0.31479  Biso   1.000  C
  C39      1.0000 0.69232  0.32988  0.08436  Biso   1.000  C
  C40      1.0000 0.69331  0.05079  0.28251  Biso   1.000  C
  C41      1.0000 0.82638  0.05415  0.28302  Biso   1.000  C
  C42      1.0000 0.04032  0.46330  0.28241  Biso   1.000  C
  C43      1.0000 0.15312  0.42171  0.28288  Biso   1.000  C
  C44      1.0000 0.69320  0.28133  0.08272  Biso   1.000  C
  C45      1.0000 0.75899  0.35360  0.08501  Biso   1.000  C
  H32      1.0000 0.64779  0.04918  0.30459  Biso   1.000  H
  C46      1.0000 0.69331  0.05079  0.21752  Biso   1.000  C
  H33      1.0000 0.87190  0.05489  0.30520  Biso   1.000  H
  C47      1.0000 0.82638  0.05415  0.21700  Biso   1.000  C
  H34      1.0000 0.00193  0.47880  0.30459  Biso   1.000  H
  C48      1.0000 0.04032  0.46330  0.21761  Biso   1.000  C
  H35      1.0000 0.19334  0.40821  0.30510  Biso   1.000  H
  C49      1.0000 0.15312  0.42171  0.21710  Biso   1.000  C
  H36      1.0000 0.64779  0.26471  0.08281  Biso   1.000  H
  C50      1.0000 0.76081  0.25596  0.08080  Biso   1.000  C
  C51      1.0000 0.82622  0.32971  0.08277  Biso   1.000  C
  H37      1.0000 0.75899  0.38680  0.08698  Biso   1.000  H
  C52      1.0000 0.75960  0.05310  0.18430  Biso   1.000  C
  H38      1.0000 0.64779  0.04918  0.19539  Biso   1.000  H
  H39      1.0000 0.87190  0.05489  0.19478  Biso   1.000  H
  C53      1.0000 0.09573  0.44092  0.18519  Biso   1.000  C
  H40      1.0000 0.00193  0.47880  0.19539  Biso   1.000  H
  H41      1.0000 0.19334  0.40821  0.19492  Biso   1.000  H
  C54      1.0000 0.82583  0.28147  0.08024  Biso   1.000  C
  C55      1.0000 0.76032  0.20472  0.08230  Biso   1.000  C
  C56      1.0000 0.89703  0.35636  0.08562  Biso   1.000  C
  C57      1.0000 0.75960  0.05811  0.11519  Biso   1.000  C
  C58      1.0000 0.09103  0.43710  0.11421  Biso   1.000  C
  H42      1.0000 0.87162  0.26530  0.07809  Biso   1.000  H
  C59      1.0000 0.69469  0.17911  0.08310  Biso   1.000  C
  C60      1.0000 0.82511  0.17862  0.08422  Biso   1.000  C
  C61      1.0000 0.96133  0.33646  0.10920  Biso   1.000  C
  C62      1.0000 0.90024  0.40296  0.06752  Biso   1.000  C
  N5       1.0000 0.75921  0.10768  0.09709  Biso   1.000  N
  H43      1.0000 0.71541  0.04250  0.09760  Biso   1.000  H
  H44      1.0000 0.80390  0.04271  0.09760  Biso   1.000  H
  N6       1.0000 0.02431  0.40800  0.09914  Biso   1.000  N
  H45      1.0000 0.13611  0.42220  0.09732  Biso   1.000  H
  H46      1.0000 0.08612  0.46859  0.09531  Biso   1.000  H
  H47      1.0000 0.64873  0.19482  0.07898  Biso   1.000  H
  C63      1.0000 0.69618  0.13080  0.08979  Biso   1.000  C
  C64      1.0000 0.82373  0.13160  0.09241  Biso   1.000  C
  H48      1.0000 0.87129  0.19412  0.07982  Biso   1.000  H
  H49      1.0000 0.96172  0.30441  0.12081  Biso   1.000  H
  C65      1.0000 0.02370  0.36263  0.11580  Biso   1.000  C
  C66      1.0000 0.96481  0.42801  0.07430  Biso   1.000  C
  H50      1.0000 0.85781  0.41762  0.05030  Biso   1.000  H
  H51      1.0000 0.65100  0.11390  0.08908  Biso   1.000  H
  H52      1.0000 0.86903  0.11492  0.09479  Biso   1.000  H
  H53      1.0000 0.06723  0.34870  0.13232  Biso   1.000  H
  H54      1.0000 0.96680  0.45981  0.06129  Biso   1.000  H
  C67      1.0000 0.44738  0.57259  0.58190  Biso   1.000  C
  N7       1.0000 0.50732  0.59326  0.60038  Biso   1.000  N
  C68      1.0000 0.38209  0.59690  0.57451  Biso   1.000  C
  H55      1.0000 0.44860  0.53998  0.57329  Biso   1.000  H
  C69      1.0000 0.57510  0.56531  0.61442  Biso   1.000  C
  C70      1.0000 0.50721  0.63968  0.61241  Biso   1.000  C
  C71      1.0000 0.37800  0.64406  0.58789  Biso   1.000  C
  H56      1.0000 0.33928  0.58091  0.56010  Biso   1.000  H
  C72      1.0000 0.58250  0.56164  0.68488  Biso   1.000  C
  H57      1.0000 0.57101  0.53369  0.59570  Biso   1.000  H
  H58      1.0000 0.61923  0.58091  0.59650  Biso   1.000  H
  H59      1.0000 0.55151  0.65480  0.62509  Biso   1.000  H
  C73      1.0000 0.44418  0.66491  0.60628  Biso   1.000  C
  C74      1.0000 0.30768  0.67012  0.58438  Biso   1.000  C
  C75      1.0000 0.53709  0.53250  0.71777  Biso   1.000  C
  C76      1.0000 0.63233  0.58850  0.71792  Biso   1.000  C
  H60      1.0000 0.44512  0.69751  0.61479  Biso   1.000  H
  C77      1.0000 0.30680  0.71867  0.58270  Biso   1.000  C
  C78      1.0000 0.24101  0.64640  0.58499  Biso   1.000  C
  C79      1.0000 0.53709  0.53250  0.78220  Biso   1.000  C
  H61      1.0000 0.50500  0.51200  0.69602  Biso   1.000  H
  C80      1.0000 0.63233  0.58850  0.78211  Biso   1.000  C
  H62      1.0000 0.66713  0.60719  0.69588  Biso   1.000  H
  H63      1.0000 0.35221  0.73529  0.58279  Biso   1.000  H
  C81      1.0000 0.23919  0.74404  0.58083  Biso   1.000  C
  C82      1.0000 0.17378  0.67029  0.58274  Biso   1.000  C
  H64      1.0000 0.24101  0.61320  0.58700  Biso   1.000  H
  C83      1.0000 0.58250  0.56164  0.81509  Biso   1.000  C
  H65      1.0000 0.50500  0.51200  0.80401  Biso   1.000  H
  H66      1.0000 0.66713  0.60719  0.80410  Biso   1.000  H
  C84      1.0000 0.17423  0.71853  0.58026  Biso   1.000  C
  C85      1.0000 0.23968  0.79528  0.58228  Biso   1.000  C
  C86      1.0000 0.10302  0.64364  0.58560  Biso   1.000  C
  C87      1.0000 0.57510  0.56531  0.88560  Biso   1.000  C
  H67      1.0000 0.12838  0.73470  0.57811  Biso   1.000  H
  C88      1.0000 0.30531  0.82089  0.58312  Biso   1.000  C
  C89      1.0000 0.17489  0.82138  0.58420  Biso   1.000  C
  C90      1.0000 0.03872  0.66354  0.60918  Biso   1.000  C
  C91      1.0000 0.09982  0.59704  0.56749  Biso   1.000  C
  N8       1.0000 0.50732  0.59326  0.89959  Biso   1.000  N
  H68      1.0000 0.57101  0.53369  0.90432  Biso   1.000  H
  H69      1.0000 0.61923  0.58091  0.90348  Biso   1.000  H
  H70      1.0000 0.35132  0.80518  0.57900  Biso   1.000  H
  C92      1.0000 0.30382  0.86920  0.58981  Biso   1.000  C
  C93      1.0000 0.17632  0.86840  0.59238  Biso   1.000  C
  H71      1.0000 0.12871  0.80588  0.57980  Biso   1.000  H
  H72      1.0000 0.03828  0.69559  0.62078  Biso   1.000  H
  C94      1.0000 0.97630  0.63737  0.61578  Biso   1.000  C
  C95      1.0000 0.03519  0.57199  0.57428  Biso   1.000  C
  H73      1.0000 0.14219  0.58238  0.55032  Biso   1.000  H
  C96      1.0000 0.50721  0.63968  0.88762  Biso   1.000  C
  C97      1.0000 0.44738  0.57259  0.91807  Biso   1.000  C
  N9       1.0000 0.24079  0.89232  0.59711  Biso   1.000  N
  H74      1.0000 0.34900  0.88610  0.58911  Biso   1.000  H
  H75      1.0000 0.13103  0.88508  0.59482  Biso   1.000  H
  N10      1.0000 0.97569  0.59200  0.59912  Biso   1.000  N
  H76      1.0000 0.93277  0.65130  0.63229  Biso   1.000  H
  H77      1.0000 0.03320  0.54019  0.56132  Biso   1.000  H
  H78      1.0000 0.55151  0.65480  0.87489  Biso   1.000  H
  C98      1.0000 0.44418  0.66491  0.89370  Biso   1.000  C
  C99      1.0000 0.38209  0.59690  0.92551  Biso   1.000  C
  H79      1.0000 0.44860  0.53998  0.92668  Biso   1.000  H
  C100     1.0000 0.24040  0.94189  0.61522  Biso   1.000  C
  C101     1.0000 0.90902  0.56290  0.61419  Biso   1.000  C
  H80      1.0000 0.44512  0.69751  0.88518  Biso   1.000  H
  C102     1.0000 0.37800  0.64406  0.91209  Biso   1.000  C
  H81      1.0000 0.33928  0.58091  0.93988  Biso   1.000  H
  H82      1.0000 0.28459  0.95750  0.59758  Biso   1.000  H
  H83      1.0000 0.19610  0.95729  0.59758  Biso   1.000  H
  C103     1.0000 0.24040  0.94690  0.68427  Biso   1.000  C
  H84      1.0000 0.86389  0.57780  0.59730  Biso   1.000  H
  H85      1.0000 0.91388  0.53141  0.59528  Biso   1.000  H
  C104     1.0000 0.90433  0.55908  0.68521  Biso   1.000  C
  C105     1.0000 0.30768  0.67012  0.91564  Biso   1.000  C
  C106     1.0000 0.30669  0.94921  0.71749  Biso   1.000  C
  C107     1.0000 0.17362  0.94585  0.71698  Biso   1.000  C
  C108     1.0000 0.95968  0.53670  0.71759  Biso   1.000  C
  C109     1.0000 0.84688  0.57829  0.71712  Biso   1.000  C
  C110     1.0000 0.30680  0.71867  0.91728  Biso   1.000  C
  C111     1.0000 0.24101  0.64640  0.91499  Biso   1.000  C
  C112     1.0000 0.30669  0.94921  0.78248  Biso   1.000  C
  H86      1.0000 0.35221  0.95082  0.69541  Biso   1.000  H
  C113     1.0000 0.17362  0.94585  0.78300  Biso   1.000  C
  H87      1.0000 0.12810  0.94511  0.69480  Biso   1.000  H
  C114     1.0000 0.95968  0.53670  0.78239  Biso   1.000  C
  H88      1.0000 0.99812  0.52120  0.69541  Biso   1.000  H
  C115     1.0000 0.84688  0.57829  0.78290  Biso   1.000  C
  H89      1.0000 0.80672  0.59179  0.69490  Biso   1.000  H
  H90      1.0000 0.35221  0.73529  0.91719  Biso   1.000  H
  C116     1.0000 0.23919  0.74404  0.91920  Biso   1.000  C
  C117     1.0000 0.17378  0.67029  0.91723  Biso   1.000  C
  H91      1.0000 0.24101  0.61320  0.91297  Biso   1.000  H
  C118     1.0000 0.24040  0.94690  0.81570  Biso   1.000  C
  H92      1.0000 0.35221  0.95082  0.80461  Biso   1.000  H
  H93      1.0000 0.12810  0.94511  0.80517  Biso   1.000  H
  C119     1.0000 0.90433  0.55908  0.81481  Biso   1.000  C
  H94      1.0000 0.99812  0.52120  0.80461  Biso   1.000  H
  H95      1.0000 0.80672  0.59179  0.80508  Biso   1.000  H
  C120     1.0000 0.17423  0.71853  0.91976  Biso   1.000  C
  C121     1.0000 0.23968  0.79528  0.91770  Biso   1.000  C
  C122     1.0000 0.10302  0.64364  0.91438  Biso   1.000  C
  C123     1.0000 0.24040  0.94189  0.88481  Biso   1.000  C
  C124     1.0000 0.90902  0.56290  0.88579  Biso   1.000  C
  H96      1.0000 0.12838  0.73470  0.92191  Biso   1.000  H
  C125     1.0000 0.30531  0.82089  0.91690  Biso   1.000  C
  C126     1.0000 0.17489  0.82138  0.91578  Biso   1.000  C
  C127     1.0000 0.03872  0.66354  0.89080  Biso   1.000  C
  C128     1.0000 0.09982  0.59704  0.93248  Biso   1.000  C
  N11      1.0000 0.24079  0.89232  0.90291  Biso   1.000  N
  H97      1.0000 0.28459  0.95750  0.90240  Biso   1.000  H
  H98      1.0000 0.19610  0.95729  0.90240  Biso   1.000  H
  N12      1.0000 0.97569  0.59200  0.90086  Biso   1.000  N
  H99      1.0000 0.86389  0.57780  0.90268  Biso   1.000  H
  H100     1.0000 0.91388  0.53141  0.90469  Biso   1.000  H
  H101     1.0000 0.35132  0.80518  0.92098  Biso   1.000  H
  C129     1.0000 0.30382  0.86920  0.91021  Biso   1.000  C
  C130     1.0000 0.17632  0.86840  0.90759  Biso   1.000  C
  H102     1.0000 0.12871  0.80588  0.92018  Biso   1.000  H
  H103     1.0000 0.03828  0.69559  0.87919  Biso   1.000  H
  C131     1.0000 0.97630  0.63737  0.88420  Biso   1.000  C
  C132     1.0000 0.03519  0.57199  0.92570  Biso   1.000  C
  H104     1.0000 0.14219  0.58238  0.94970  Biso   1.000  H
  H105     1.0000 0.34900  0.88610  0.91092  Biso   1.000  H
  H106     1.0000 0.13103  0.88508  0.90521  Biso   1.000  H
  H107     1.0000 0.93277  0.65130  0.86768  Biso   1.000  H
  H108     1.0000 0.03320  0.54019  0.93871  Biso   1.000  H
  C133     1.0000 0.69618  0.36920  0.58981  Biso   1.000  C
  C134     1.0000 0.69469  0.32089  0.58312  Biso   1.000  C
  N13      1.0000 0.75921  0.39232  0.59711  Biso   1.000  N
  H109     1.0000 0.65100  0.38610  0.58911  Biso   1.000  H
  C135     1.0000 0.76032  0.29528  0.58228  Biso   1.000  C
  H110     1.0000 0.64873  0.30518  0.57900  Biso   1.000  H
  C136     1.0000 0.82373  0.36840  0.59238  Biso   1.000  C
  C137     1.0000 0.75960  0.44189  0.61522  Biso   1.000  C
  C138     1.0000 0.76081  0.24404  0.58083  Biso   1.000  C
  C139     1.0000 0.82511  0.32138  0.58420  Biso   1.000  C
  H111     1.0000 0.86903  0.38508  0.59482  Biso   1.000  H
  H112     1.0000 0.71541  0.45750  0.59758  Biso   1.000  H
  H113     1.0000 0.80390  0.45729  0.59758  Biso   1.000  H
  C140     1.0000 0.75960  0.44690  0.68427  Biso   1.000  C
  C141     1.0000 0.69320  0.21867  0.58270  Biso   1.000  C
  C142     1.0000 0.82583  0.21853  0.58026  Biso   1.000  C
  H114     1.0000 0.87129  0.30588  0.57980  Biso   1.000  H
  C143     1.0000 0.69331  0.44921  0.71749  Biso   1.000  C
  C144     1.0000 0.82638  0.44585  0.71698  Biso   1.000  C
  C145     1.0000 0.69232  0.17012  0.58438  Biso   1.000  C
  H115     1.0000 0.64779  0.23529  0.58279  Biso   1.000  H
  C146     1.0000 0.82622  0.17029  0.58274  Biso   1.000  C
  H116     1.0000 0.87162  0.23470  0.57811  Biso   1.000  H
  H117     1.0000 0.64779  0.45082  0.69541  Biso   1.000  H
  C147     1.0000 0.69331  0.44921  0.78248  Biso   1.000  C
  H118     1.0000 0.87190  0.44511  0.69480  Biso   1.000  H
  C148     1.0000 0.82638  0.44585  0.78300  Biso   1.000  C
  C149     1.0000 0.62200  0.14406  0.58789  Biso   1.000  C
  C150     1.0000 0.75899  0.14640  0.58499  Biso   1.000  C
  C151     1.0000 0.89703  0.14364  0.58560  Biso   1.000  C
  C152     1.0000 0.75960  0.44690  0.81570  Biso   1.000  C
  H119     1.0000 0.64779  0.45082  0.80461  Biso   1.000  H
  H120     1.0000 0.87190  0.44511  0.80517  Biso   1.000  H
  C153     1.0000 0.55582  0.16491  0.60628  Biso   1.000  C
  C154     1.0000 0.61791  0.09690  0.57451  Biso   1.000  C
  H121     1.0000 0.75899  0.11320  0.58700  Biso   1.000  H
  C155     1.0000 0.96133  0.16354  0.60918  Biso   1.000  C
  C156     1.0000 0.90024  0.09704  0.56749  Biso   1.000  C
  C157     1.0000 0.75960  0.44189  0.88481  Biso   1.000  C
  C158     1.0000 0.49279  0.13968  0.61241  Biso   1.000  C
  H122     1.0000 0.55488  0.19751  0.61479  Biso   1.000  H
  C159     1.0000 0.55262  0.07259  0.58190  Biso   1.000  C
  H123     1.0000 0.66072  0.08091  0.56010  Biso   1.000  H
  H124     1.0000 0.96172  0.19559  0.62078  Biso   1.000  H
  C160     1.0000 0.02370  0.13737  0.61578  Biso   1.000  C
  C161     1.0000 0.96481  0.07199  0.57428  Biso   1.000  C
  H125     1.0000 0.85781  0.08238  0.55032  Biso   1.000  H
  N14      1.0000 0.75921  0.39232  0.90291  Biso   1.000  N
  H126     1.0000 0.71541  0.45750  0.90240  Biso   1.000  H
  H127     1.0000 0.80390  0.45729  0.90240  Biso   1.000  H
  N15      1.0000 0.49268  0.09326  0.60038  Biso   1.000  N
  H128     1.0000 0.44849  0.15480  0.62509  Biso   1.000  H
  H129     1.0000 0.55140  0.03998  0.57329  Biso   1.000  H
  N16      1.0000 0.02431  0.09200  0.59912  Biso   1.000  N
  H130     1.0000 0.06723  0.15130  0.63229  Biso   1.000  H
  H131     1.0000 0.96680  0.04019  0.56132  Biso   1.000  H
  C162     1.0000 0.69618  0.36920  0.91021  Biso   1.000  C
  C163     1.0000 0.82373  0.36840  0.90759  Biso   1.000  C
  C164     1.0000 0.42490  0.06531  0.61442  Biso   1.000  C
  C165     1.0000 0.09103  0.06290  0.61419  Biso   1.000  C
  C166     1.0000 0.69469  0.32089  0.91690  Biso   1.000  C
  H132     1.0000 0.65100  0.38610  0.91092  Biso   1.000  H
  C167     1.0000 0.82511  0.32138  0.91578  Biso   1.000  C
  H133     1.0000 0.86903  0.38508  0.90521  Biso   1.000  H
  C168     1.0000 0.41750  0.06164  0.68488  Biso   1.000  C
  H134     1.0000 0.42899  0.03369  0.59570  Biso   1.000  H
  H135     1.0000 0.38082  0.08091  0.59650  Biso   1.000  H
  H136     1.0000 0.13611  0.07780  0.59730  Biso   1.000  H
  H137     1.0000 0.08612  0.03141  0.59528  Biso   1.000  H
  C169     1.0000 0.09573  0.05908  0.68521  Biso   1.000  C
  C170     1.0000 0.76032  0.29528  0.91770  Biso   1.000  C
  H138     1.0000 0.64873  0.30518  0.92098  Biso   1.000  H
  H139     1.0000 0.87129  0.30588  0.92018  Biso   1.000  H
  C171     1.0000 0.46291  0.03250  0.71777  Biso   1.000  C
  C172     1.0000 0.36773  0.08850  0.71792  Biso   1.000  C
  C173     1.0000 0.04032  0.03670  0.71759  Biso   1.000  C
  C174     1.0000 0.15312  0.07829  0.71712  Biso   1.000  C
  C175     1.0000 0.76081  0.24404  0.91920  Biso   1.000  C
  H140     1.0000 0.49500  0.01200  0.69602  Biso   1.000  H
  C176     1.0000 0.46291  0.03250  0.78220  Biso   1.000  C
  H141     1.0000 0.33293  0.10719  0.69588  Biso   1.000  H
  C177     1.0000 0.36773  0.08850  0.78211  Biso   1.000  C
  H142     1.0000 0.00193  0.02120  0.69541  Biso   1.000  H
  C178     1.0000 0.04032  0.03670  0.78239  Biso   1.000  C
  H143     1.0000 0.19334  0.09179  0.69490  Biso   1.000  H
  C179     1.0000 0.15312  0.07829  0.78290  Biso   1.000  C
  C180     1.0000 0.69320  0.21867  0.91728  Biso   1.000  C
  C181     1.0000 0.82583  0.21853  0.91976  Biso   1.000  C
  C182     1.0000 0.41750  0.06164  0.81509  Biso   1.000  C
  H144     1.0000 0.49500  0.01200  0.80401  Biso   1.000  H
  H145     1.0000 0.33293  0.10719  0.80410  Biso   1.000  H
  C183     1.0000 0.09573  0.05908  0.81481  Biso   1.000  C
  H146     1.0000 0.00193  0.02120  0.80461  Biso   1.000  H
  H147     1.0000 0.19334  0.09179  0.80508  Biso   1.000  H
  C184     1.0000 0.69232  0.17012  0.91564  Biso   1.000  C
  H148     1.0000 0.64779  0.23529  0.91719  Biso   1.000  H
  C185     1.0000 0.82622  0.17029  0.91723  Biso   1.000  C
  H149     1.0000 0.87162  0.23470  0.92191  Biso   1.000  H
  C186     1.0000 0.42490  0.06531  0.88560  Biso   1.000  C
  C187     1.0000 0.09103  0.06290  0.88579  Biso   1.000  C
  C188     1.0000 0.62200  0.14406  0.91209  Biso   1.000  C
  C189     1.0000 0.75899  0.14640  0.91499  Biso   1.000  C
  C190     1.0000 0.89703  0.14364  0.91438  Biso   1.000  C
  N17      1.0000 0.49268  0.09326  0.89959  Biso   1.000  N
  H150     1.0000 0.42899  0.03369  0.90432  Biso   1.000  H
  H151     1.0000 0.38082  0.08091  0.90348  Biso   1.000  H
  N18      1.0000 0.02431  0.09200  0.90086  Biso   1.000  N
  H152     1.0000 0.13611  0.07780  0.90268  Biso   1.000  H
  H153     1.0000 0.08612  0.03141  0.90469  Biso   1.000  H
  C191     1.0000 0.55582  0.16491  0.89370  Biso   1.000  C
  C192     1.0000 0.61791  0.09690  0.92551  Biso   1.000  C
  H154     1.0000 0.75899  0.11320  0.91297  Biso   1.000  H
  C193     1.0000 0.96133  0.16354  0.89080  Biso   1.000  C
  C194     1.0000 0.90024  0.09704  0.93248  Biso   1.000  C
  C195     1.0000 0.49279  0.13968  0.88762  Biso   1.000  C
  C196     1.0000 0.55262  0.07259  0.91807  Biso   1.000  C
  C197     1.0000 0.02370  0.13737  0.88420  Biso   1.000  C
  C198     1.0000 0.96481  0.07199  0.92570  Biso   1.000  C
  H155     1.0000 0.55488  0.19751  0.88518  Biso   1.000  H
  H156     1.0000 0.66072  0.08091  0.93988  Biso   1.000  H
  H157     1.0000 0.96172  0.19559  0.87919  Biso   1.000  H
  H158     1.0000 0.85781  0.08238  0.94970  Biso   1.000  H
  H159     1.0000 0.44849  0.15480  0.87489  Biso   1.000  H
  H160     1.0000 0.55140  0.03998  0.92668  Biso   1.000  H
  H161     1.0000 0.06723  0.15130  0.86768  Biso   1.000  H
  H162     1.0000 0.96680  0.04019  0.93871  Biso   1.000  H
  C199     1.0000 0.30382  0.63080  0.41019  Biso   1.000  C
  N19      1.0000 0.24079  0.60768  0.40289  Biso   1.000  N
  C200     1.0000 0.30531  0.67911  0.41688  Biso   1.000  C
  H163     1.0000 0.34900  0.61390  0.41089  Biso   1.000  H
  C201     1.0000 0.24040  0.55811  0.38478  Biso   1.000  C
  C202     1.0000 0.17632  0.63160  0.40762  Biso   1.000  C
  C203     1.0000 0.23968  0.70472  0.41768  Biso   1.000  C
  H164     1.0000 0.35132  0.69482  0.42100  Biso   1.000  H
  C204     1.0000 0.24040  0.55310  0.31568  Biso   1.000  C
  H165     1.0000 0.28459  0.54250  0.40238  Biso   1.000  H
  H166     1.0000 0.19610  0.54271  0.40238  Biso   1.000  H
  H167     1.0000 0.13103  0.61492  0.40518  Biso   1.000  H
  C205     1.0000 0.17489  0.67862  0.41580  Biso   1.000  C
  C206     1.0000 0.23919  0.75596  0.41917  Biso   1.000  C
  C207     1.0000 0.30669  0.55079  0.28251  Biso   1.000  C
  C208     1.0000 0.17362  0.55415  0.28302  Biso   1.000  C
  H168     1.0000 0.12871  0.69412  0.42020  Biso   1.000  H
  C209     1.0000 0.30680  0.78133  0.41730  Biso   1.000  C
  C210     1.0000 0.17423  0.78147  0.41974  Biso   1.000  C
  C211     1.0000 0.30669  0.55079  0.21752  Biso   1.000  C
  H169     1.0000 0.35221  0.54918  0.30459  Biso   1.000  H
  C212     1.0000 0.17362  0.55415  0.21700  Biso   1.000  C
  H170     1.0000 0.12810  0.55489  0.30520  Biso   1.000  H
  C213     1.0000 0.30768  0.82988  0.41562  Biso   1.000  C
  H171     1.0000 0.35221  0.76471  0.41721  Biso   1.000  H
  H172     1.0000 0.12838  0.76530  0.42189  Biso   1.000  H
  C214     1.0000 0.17378  0.82971  0.41721  Biso   1.000  C
  C215     1.0000 0.24040  0.55310  0.18430  Biso   1.000  C
  H173     1.0000 0.35221  0.54918  0.19539  Biso   1.000  H
  H174     1.0000 0.12810  0.55489  0.19478  Biso   1.000  H
  C216     1.0000 0.37800  0.85594  0.41211  Biso   1.000  C
  C217     1.0000 0.24101  0.85360  0.41501  Biso   1.000  C
  C218     1.0000 0.10302  0.85636  0.41440  Biso   1.000  C
  C219     1.0000 0.24040  0.55811  0.11519  Biso   1.000  C
  C220     1.0000 0.44418  0.83509  0.39372  Biso   1.000  C
  C221     1.0000 0.38209  0.90310  0.42549  Biso   1.000  C
  H175     1.0000 0.24101  0.88680  0.41300  Biso   1.000  H
  C222     1.0000 0.03872  0.83646  0.39082  Biso   1.000  C
  C223     1.0000 0.09982  0.90296  0.43251  Biso   1.000  C
  N20      1.0000 0.24079  0.60768  0.09709  Biso   1.000  N
  H176     1.0000 0.28459  0.54250  0.09760  Biso   1.000  H
  H177     1.0000 0.19610  0.54271  0.09760  Biso   1.000  H
  C224     1.0000 0.50721  0.86032  0.38759  Biso   1.000  C
  H178     1.0000 0.44512  0.80249  0.38521  Biso   1.000  H
  H179     1.0000 0.33928  0.91909  0.43990  Biso   1.000  H
  C225     1.0000 0.44738  0.92741  0.41810  Biso   1.000  C
  H180     1.0000 0.03828  0.80441  0.37922  Biso   1.000  H
  C226     1.0000 0.97630  0.86263  0.38418  Biso   1.000  C
  C227     1.0000 0.03519  0.92801  0.42568  Biso   1.000  C
  H181     1.0000 0.14219  0.91762  0.44968  Biso   1.000  H
  C228     1.0000 0.30382  0.63080  0.08979  Biso   1.000  C
  C229     1.0000 0.17632  0.63160  0.09241  Biso   1.000  C
  N21      1.0000 0.50732  0.90674  0.39962  Biso   1.000  N
  H182     1.0000 0.55151  0.84520  0.37491  Biso   1.000  H
  H183     1.0000 0.44860  0.96002  0.42671  Biso   1.000  H
  N22      1.0000 0.97569  0.90800  0.40088  Biso   1.000  N
  H184     1.0000 0.93277  0.84870  0.36771  Biso   1.000  H
  H185     1.0000 0.03320  0.95981  0.43868  Biso   1.000  H
  C230     1.0000 0.30531  0.67911  0.08310  Biso   1.000  C
  H186     1.0000 0.34900  0.61390  0.08908  Biso   1.000  H
  H187     1.0000 0.13103  0.61492  0.09479  Biso   1.000  H
  C231     1.0000 0.17489  0.67862  0.08422  Biso   1.000  C
  C232     1.0000 0.57510  0.93469  0.38558  Biso   1.000  C
  C233     1.0000 0.90902  0.93710  0.38581  Biso   1.000  C
  C234     1.0000 0.23968  0.70472  0.08230  Biso   1.000  C
  H188     1.0000 0.35132  0.69482  0.07898  Biso   1.000  H
  H189     1.0000 0.12871  0.69412  0.07982  Biso   1.000  H
  C235     1.0000 0.58250  0.93836  0.31512  Biso   1.000  C
  H190     1.0000 0.57101  0.96631  0.40430  Biso   1.000  H
  H191     1.0000 0.61923  0.91909  0.40350  Biso   1.000  H
  H192     1.0000 0.86389  0.92220  0.40270  Biso   1.000  H
  H193     1.0000 0.91388  0.96859  0.40472  Biso   1.000  H
  C236     1.0000 0.90433  0.94092  0.31479  Biso   1.000  C
  C237     1.0000 0.23919  0.75596  0.08080  Biso   1.000  C
  C238     1.0000 0.53709  0.96750  0.28218  Biso   1.000  C
  C239     1.0000 0.63233  0.91150  0.28208  Biso   1.000  C
  C240     1.0000 0.95968  0.96330  0.28241  Biso   1.000  C
  C241     1.0000 0.84688  0.92171  0.28288  Biso   1.000  C
  C242     1.0000 0.30680  0.78133  0.08272  Biso   1.000  C
  C243     1.0000 0.17423  0.78147  0.08024  Biso   1.000  C
  C244     1.0000 0.53709  0.96750  0.21780  Biso   1.000  C
  H194     1.0000 0.50500  0.98800  0.30398  Biso   1.000  H
  C245     1.0000 0.63233  0.91150  0.21789  Biso   1.000  C
  H195     1.0000 0.66713  0.89281  0.30408  Biso   1.000  H
  C246     1.0000 0.95968  0.96330  0.21761  Biso   1.000  C
  H196     1.0000 0.99812  0.97880  0.30459  Biso   1.000  H
  C247     1.0000 0.84688  0.92171  0.21710  Biso   1.000  C
  H197     1.0000 0.80672  0.90821  0.30510  Biso   1.000  H
  C248     1.0000 0.30768  0.82988  0.08436  Biso   1.000  C
  H198     1.0000 0.35221  0.76471  0.08281  Biso   1.000  H
  H199     1.0000 0.12838  0.76530  0.07809  Biso   1.000  H
  C249     1.0000 0.17378  0.82971  0.08277  Biso   1.000  C
  C250     1.0000 0.58250  0.93836  0.18491  Biso   1.000  C
  H200     1.0000 0.50500  0.98800  0.19599  Biso   1.000  H
  H201     1.0000 0.66713  0.89281  0.19590  Biso   1.000  H
  C251     1.0000 0.90433  0.94092  0.18519  Biso   1.000  C
  H202     1.0000 0.99812  0.97880  0.19539  Biso   1.000  H
  H203     1.0000 0.80672  0.90821  0.19492  Biso   1.000  H
  C252     1.0000 0.37800  0.85594  0.08791  Biso   1.000  C
  C253     1.0000 0.24101  0.85360  0.08501  Biso   1.000  C
  C254     1.0000 0.10302  0.85636  0.08562  Biso   1.000  C
  C255     1.0000 0.57510  0.93469  0.11440  Biso   1.000  C
  C256     1.0000 0.90902  0.93710  0.11421  Biso   1.000  C
  C257     1.0000 0.44418  0.83509  0.10630  Biso   1.000  C
  C258     1.0000 0.38209  0.90310  0.07449  Biso   1.000  C
  H204     1.0000 0.24101  0.88680  0.08698  Biso   1.000  H
  C259     1.0000 0.03872  0.83646  0.10920  Biso   1.000  C
  C260     1.0000 0.09982  0.90296  0.06752  Biso   1.000  C
  N23      1.0000 0.50732  0.90674  0.10036  Biso   1.000  N
  H205     1.0000 0.57101  0.96631  0.09568  Biso   1.000  H
  H206     1.0000 0.61923  0.91909  0.09648  Biso   1.000  H
  N24      1.0000 0.97569  0.90800  0.09914  Biso   1.000  N
  H207     1.0000 0.86389  0.92220  0.09732  Biso   1.000  H
  H208     1.0000 0.91388  0.96859  0.09531  Biso   1.000  H
  C261     1.0000 0.50721  0.86032  0.11238  Biso   1.000  C
  H209     1.0000 0.44512  0.80249  0.11482  Biso   1.000  H
  H210     1.0000 0.33928  0.91909  0.06012  Biso   1.000  H
  C262     1.0000 0.44738  0.92741  0.08188  Biso   1.000  C
  H211     1.0000 0.03828  0.80441  0.12081  Biso   1.000  H
  C263     1.0000 0.97630  0.86263  0.11580  Biso   1.000  C
  C264     1.0000 0.03519  0.92801  0.07430  Biso   1.000  C
  H212     1.0000 0.14219  0.91762  0.05030  Biso   1.000  H
  H213     1.0000 0.55151  0.84520  0.12511  Biso   1.000  H
  H214     1.0000 0.44860  0.96002  0.07332  Biso   1.000  H
  H215     1.0000 0.93277  0.84870  0.13232  Biso   1.000  H
  H216     1.0000 0.03320  0.95981  0.06129  Biso   1.000  H
