data_image0
_cell_length_a       18.157
_cell_length_b       28.663
_cell_length_c       21.162
_cell_angle_alpha    90
_cell_angle_beta     90
_cell_angle_gamma    90

_symmetry_space_group_name_H-M    "P 1"
_symmetry_int_tables_number       1

loop_
  _symmetry_equiv_pos_as_xyz
  'x, y, z'

loop_
  _atom_site_label
  _atom_site_occupancy
  _atom_site_fract_x
  _atom_site_fract_y
  _atom_site_fract_z
  _atom_site_thermal_displace_type
  _atom_site_B_iso_or_equiv
  _atom_site_type_symbol
  C1       1.0000 0.29812  0.41297  0.39079  Biso   1.000  C
  C2       1.0000 0.23468  0.38729  0.38541  Biso   1.000  C
  C3       1.0000 0.36289  0.39235  0.41187  Biso   1.000  C
  H1       1.0000 0.29768  0.44510  0.38007  Biso   1.000  H
  N1       1.0000 0.23390  0.34166  0.40067  Biso   1.000  N
  H2       1.0000 0.19089  0.40181  0.37071  Biso   1.000  H
  C4       1.0000 0.35959  0.34525  0.42898  Biso   1.000  C
  C5       1.0000 0.43333  0.41866  0.41532  Biso   1.000  C
  C6       1.0000 0.16611  0.31351  0.38720  Biso   1.000  C
  C7       1.0000 0.29438  0.32083  0.42217  Biso   1.000  C
  H3       1.0000 0.40199  0.33011  0.44528  Biso   1.000  H
  C8       1.0000 0.49997  0.39472  0.41348  Biso   1.000  C
  C9       1.0000 0.43377  0.46726  0.41768  Biso   1.000  C
  C10      1.0000 0.15911  0.30918  0.31585  Biso   1.000  C
  H4       1.0000 0.17029  0.28221  0.40658  Biso   1.000  H
  H5       1.0000 0.12221  0.32920  0.40488  Biso   1.000  H
  H6       1.0000 0.29289  0.28870  0.43299  Biso   1.000  H
  C11      1.0000 0.56667  0.41866  0.41532  Biso   1.000  C
  H7       1.0000 0.49997  0.36158  0.41097  Biso   1.000  H
  C12      1.0000 0.49997  0.49245  0.41877  Biso   1.000  C
  H8       1.0000 0.38828  0.48359  0.41858  Biso   1.000  H
  C13      1.0000 0.21028  0.28270  0.28168  Biso   1.000  C
  C14      1.0000 0.10663  0.33329  0.28329  Biso   1.000  C
  C15      1.0000 0.56623  0.46726  0.41768  Biso   1.000  C
  C16      1.0000 0.63711  0.39235  0.41187  Biso   1.000  C
  C17      1.0000 0.49997  0.54384  0.41811  Biso   1.000  C
  H9       1.0000 0.24558  0.26449  0.30370  Biso   1.000  H
  C18      1.0000 0.21028  0.28270  0.21832  Biso   1.000  C
  H10      1.0000 0.06989  0.35021  0.30559  Biso   1.000  H
  C19      1.0000 0.10663  0.33329  0.21671  Biso   1.000  C
  H11      1.0000 0.61166  0.48359  0.41858  Biso   1.000  H
  C20      1.0000 0.64041  0.34525  0.42898  Biso   1.000  C
  C21      1.0000 0.70188  0.41297  0.39079  Biso   1.000  C
  C22      1.0000 0.56502  0.56976  0.41589  Biso   1.000  C
  C23      1.0000 0.43498  0.56976  0.41589  Biso   1.000  C
  C24      1.0000 0.15911  0.30918  0.18410  Biso   1.000  C
  H12      1.0000 0.24558  0.26449  0.19630  Biso   1.000  H
  H13      1.0000 0.06989  0.35021  0.19441  Biso   1.000  H
  H14      1.0000 0.59801  0.33011  0.44528  Biso   1.000  H
  C25      1.0000 0.70557  0.32083  0.42217  Biso   1.000  C
  C26      1.0000 0.76527  0.38729  0.38541  Biso   1.000  C
  H15      1.0000 0.70226  0.44510  0.38007  Biso   1.000  H
  C27      1.0000 0.56397  0.61728  0.40899  Biso   1.000  C
  H16      1.0000 0.61100  0.55409  0.41919  Biso   1.000  H
  C28      1.0000 0.43598  0.61728  0.40899  Biso   1.000  C
  H17      1.0000 0.38900  0.55409  0.41919  Biso   1.000  H
  C29      1.0000 0.16611  0.31351  0.11280  Biso   1.000  C
  N2       1.0000 0.76610  0.34166  0.40067  Biso   1.000  N
  H18      1.0000 0.70711  0.28870  0.43299  Biso   1.000  H
  H19      1.0000 0.80911  0.40181  0.37071  Biso   1.000  H
  N3       1.0000 0.49997  0.64020  0.40440  Biso   1.000  N
  H20      1.0000 0.60897  0.63409  0.40748  Biso   1.000  H
  H21      1.0000 0.39098  0.63409  0.40748  Biso   1.000  H
  N4       1.0000 0.23390  0.34166  0.09928  Biso   1.000  N
  H22      1.0000 0.17029  0.28221  0.09337  Biso   1.000  H
  H23      1.0000 0.12221  0.32920  0.09508  Biso   1.000  H
  C30      1.0000 0.83389  0.31351  0.38720  Biso   1.000  C
  C31      1.0000 0.49997  0.69117  0.38720  Biso   1.000  C
  C32      1.0000 0.29438  0.32083  0.07778  Biso   1.000  C
  C33      1.0000 0.23468  0.38729  0.11459  Biso   1.000  C
  H24      1.0000 0.82971  0.28221  0.40658  Biso   1.000  H
  H25      1.0000 0.87779  0.32920  0.40488  Biso   1.000  H
  C34      1.0000 0.84089  0.30918  0.31585  Biso   1.000  C
  C35      1.0000 0.49997  0.69581  0.31627  Biso   1.000  C
  H26      1.0000 0.54420  0.70649  0.40497  Biso   1.000  H
  H27      1.0000 0.45580  0.70649  0.40497  Biso   1.000  H
  C36      1.0000 0.35959  0.34525  0.07098  Biso   1.000  C
  H28      1.0000 0.29289  0.28870  0.06701  Biso   1.000  H
  H29      1.0000 0.19089  0.40181  0.12929  Biso   1.000  H
  C37      1.0000 0.29812  0.41297  0.10921  Biso   1.000  C
  C38      1.0000 0.78967  0.28270  0.28168  Biso   1.000  C
  C39      1.0000 0.89337  0.33329  0.28329  Biso   1.000  C
  C40      1.0000 0.56590  0.69714  0.28268  Biso   1.000  C
  C41      1.0000 0.43410  0.69714  0.28268  Biso   1.000  C
  C42      1.0000 0.36289  0.39235  0.08813  Biso   1.000  C
  H30      1.0000 0.40199  0.33011  0.05472  Biso   1.000  H
  H31      1.0000 0.29768  0.44510  0.11988  Biso   1.000  H
  H32      1.0000 0.75436  0.26449  0.30370  Biso   1.000  H
  C43      1.0000 0.78967  0.28270  0.21832  Biso   1.000  C
  H33      1.0000 0.93011  0.35021  0.30559  Biso   1.000  H
  C44      1.0000 0.89337  0.33329  0.21671  Biso   1.000  C
  H34      1.0000 0.61139  0.69808  0.30489  Biso   1.000  H
  C45      1.0000 0.56590  0.69714  0.21728  Biso   1.000  C
  H35      1.0000 0.38861  0.69808  0.30489  Biso   1.000  H
  C46      1.0000 0.43410  0.69714  0.21728  Biso   1.000  C
  C47      1.0000 0.43333  0.41866  0.08468  Biso   1.000  C
  C48      1.0000 0.84089  0.30918  0.18410  Biso   1.000  C
  H36      1.0000 0.75436  0.26449  0.19630  Biso   1.000  H
  H37      1.0000 0.93011  0.35021  0.19441  Biso   1.000  H
  C49      1.0000 0.49997  0.69581  0.18368  Biso   1.000  C
  H38      1.0000 0.61139  0.69808  0.19511  Biso   1.000  H
  H39      1.0000 0.38861  0.69808  0.19511  Biso   1.000  H
  C50      1.0000 0.49997  0.39472  0.08648  Biso   1.000  C
  C51      1.0000 0.43377  0.46726  0.08232  Biso   1.000  C
  C52      1.0000 0.83389  0.31351  0.11280  Biso   1.000  C
  C53      1.0000 0.49997  0.69117  0.11280  Biso   1.000  C
  C54      1.0000 0.56667  0.41866  0.08468  Biso   1.000  C
  H40      1.0000 0.49997  0.36158  0.08898  Biso   1.000  H
  C55      1.0000 0.49997  0.49245  0.08118  Biso   1.000  C
  H41      1.0000 0.38828  0.48359  0.08142  Biso   1.000  H
  N5       1.0000 0.76610  0.34166  0.09928  Biso   1.000  N
  H42      1.0000 0.82971  0.28221  0.09337  Biso   1.000  H
  H43      1.0000 0.87779  0.32920  0.09508  Biso   1.000  H
  N6       1.0000 0.49997  0.64020  0.09560  Biso   1.000  N
  H44      1.0000 0.54420  0.70649  0.09498  Biso   1.000  H
  H45      1.0000 0.45580  0.70649  0.09498  Biso   1.000  H
  C56      1.0000 0.56623  0.46726  0.08232  Biso   1.000  C
  C57      1.0000 0.63711  0.39235  0.08813  Biso   1.000  C
  C58      1.0000 0.49997  0.54384  0.08189  Biso   1.000  C
  C59      1.0000 0.70557  0.32083  0.07778  Biso   1.000  C
  C60      1.0000 0.76527  0.38729  0.11459  Biso   1.000  C
  C61      1.0000 0.56397  0.61728  0.09101  Biso   1.000  C
  C62      1.0000 0.43598  0.61728  0.09101  Biso   1.000  C
  H46      1.0000 0.61166  0.48359  0.08142  Biso   1.000  H
  C63      1.0000 0.64041  0.34525  0.07098  Biso   1.000  C
  C64      1.0000 0.70188  0.41297  0.10921  Biso   1.000  C
  C65      1.0000 0.56502  0.56976  0.08411  Biso   1.000  C
  C66      1.0000 0.43498  0.56976  0.08411  Biso   1.000  C
  H47      1.0000 0.70711  0.28870  0.06701  Biso   1.000  H
  H48      1.0000 0.80911  0.40181  0.12929  Biso   1.000  H
  H49      1.0000 0.60897  0.63409  0.09248  Biso   1.000  H
  H50      1.0000 0.39098  0.63409  0.09248  Biso   1.000  H
  H51      1.0000 0.59801  0.33011  0.05472  Biso   1.000  H
  H52      1.0000 0.70226  0.44510  0.11988  Biso   1.000  H
  H53      1.0000 0.61100  0.55409  0.08081  Biso   1.000  H
  H54      1.0000 0.38900  0.55409  0.08081  Biso   1.000  H
  C67      1.0000 0.29812  0.58703  0.60921  Biso   1.000  C
  C68      1.0000 0.36289  0.60765  0.58813  Biso   1.000  C
  C69      1.0000 0.23468  0.61271  0.61459  Biso   1.000  C
  H55      1.0000 0.29768  0.55490  0.61988  Biso   1.000  H
  C70      1.0000 0.43333  0.58131  0.58463  Biso   1.000  C
  C71      1.0000 0.35959  0.65475  0.57098  Biso   1.000  C
  N7       1.0000 0.23390  0.65834  0.59928  Biso   1.000  N
  H56      1.0000 0.19089  0.59819  0.62929  Biso   1.000  H
  C72      1.0000 0.43377  0.53274  0.58232  Biso   1.000  C
  C73      1.0000 0.49997  0.60524  0.58648  Biso   1.000  C
  H57      1.0000 0.40199  0.66989  0.55467  Biso   1.000  H
  C74      1.0000 0.29438  0.67913  0.57778  Biso   1.000  C
  C75      1.0000 0.16611  0.68646  0.61280  Biso   1.000  C
  C76      1.0000 0.49997  0.50752  0.58118  Biso   1.000  C
  H58      1.0000 0.38828  0.51638  0.58137  Biso   1.000  H
  C77      1.0000 0.56667  0.58131  0.58463  Biso   1.000  C
  H59      1.0000 0.49997  0.63838  0.58898  Biso   1.000  H
  H60      1.0000 0.29289  0.71130  0.56701  Biso   1.000  H
  H61      1.0000 0.17029  0.71779  0.59337  Biso   1.000  H
  H62      1.0000 0.12221  0.67080  0.59508  Biso   1.000  H
  C78      1.0000 0.15911  0.69079  0.68410  Biso   1.000  C
  C79      1.0000 0.49997  0.45613  0.58189  Biso   1.000  C
  C80      1.0000 0.56623  0.53274  0.58232  Biso   1.000  C
  C81      1.0000 0.63711  0.60765  0.58813  Biso   1.000  C
  C82      1.0000 0.21028  0.71727  0.71827  Biso   1.000  C
  C83      1.0000 0.10663  0.66671  0.71666  Biso   1.000  C
  C84      1.0000 0.43498  0.43024  0.58407  Biso   1.000  C
  C85      1.0000 0.56502  0.43024  0.58407  Biso   1.000  C
  H63      1.0000 0.61166  0.51638  0.58137  Biso   1.000  H
  C86      1.0000 0.64041  0.65475  0.57098  Biso   1.000  C
  C87      1.0000 0.70188  0.58703  0.60921  Biso   1.000  C
  C88      1.0000 0.21028  0.71727  0.78168  Biso   1.000  C
  H64      1.0000 0.24558  0.73548  0.69630  Biso   1.000  H
  C89      1.0000 0.10663  0.66671  0.78329  Biso   1.000  C
  H65      1.0000 0.06989  0.64979  0.69441  Biso   1.000  H
  C90      1.0000 0.43598  0.38272  0.59096  Biso   1.000  C
  H66      1.0000 0.38900  0.44591  0.58081  Biso   1.000  H
  C91      1.0000 0.56397  0.38272  0.59096  Biso   1.000  C
  H67      1.0000 0.61100  0.44591  0.58081  Biso   1.000  H
  H68      1.0000 0.59801  0.66989  0.55467  Biso   1.000  H
  C92      1.0000 0.70557  0.67913  0.57778  Biso   1.000  C
  C93      1.0000 0.76527  0.61271  0.61459  Biso   1.000  C
  H69      1.0000 0.70226  0.55490  0.61988  Biso   1.000  H
  C94      1.0000 0.15911  0.69079  0.81585  Biso   1.000  C
  H70      1.0000 0.24558  0.73548  0.80366  Biso   1.000  H
  H71      1.0000 0.06989  0.64979  0.80559  Biso   1.000  H
  N8       1.0000 0.49997  0.35980  0.59560  Biso   1.000  N
  H72      1.0000 0.39098  0.36591  0.59248  Biso   1.000  H
  H73      1.0000 0.60897  0.36591  0.59248  Biso   1.000  H
  N9       1.0000 0.76610  0.65834  0.59928  Biso   1.000  N
  H74      1.0000 0.70711  0.71130  0.56701  Biso   1.000  H
  H75      1.0000 0.80911  0.59819  0.62929  Biso   1.000  H
  C95      1.0000 0.16611  0.68646  0.88716  Biso   1.000  C
  C96      1.0000 0.49997  0.30883  0.61280  Biso   1.000  C
  C97      1.0000 0.83389  0.68646  0.61280  Biso   1.000  C
  N10      1.0000 0.23390  0.65834  0.90067  Biso   1.000  N
  H76      1.0000 0.17029  0.71779  0.90658  Biso   1.000  H
  H77      1.0000 0.12221  0.67080  0.90488  Biso   1.000  H
  C98      1.0000 0.49997  0.30416  0.68368  Biso   1.000  C
  H78      1.0000 0.45580  0.29351  0.59498  Biso   1.000  H
  H79      1.0000 0.54420  0.29351  0.59498  Biso   1.000  H
  H80      1.0000 0.82971  0.71779  0.59337  Biso   1.000  H
  H81      1.0000 0.87779  0.67080  0.59508  Biso   1.000  H
  C99      1.0000 0.84089  0.69079  0.68410  Biso   1.000  C
  C100     1.0000 0.29438  0.67913  0.92217  Biso   1.000  C
  C101     1.0000 0.23468  0.61271  0.88536  Biso   1.000  C
  C102     1.0000 0.43410  0.30283  0.71728  Biso   1.000  C
  C103     1.0000 0.56590  0.30283  0.71728  Biso   1.000  C
  C104     1.0000 0.78967  0.71727  0.71827  Biso   1.000  C
  C105     1.0000 0.89337  0.66671  0.71666  Biso   1.000  C
  C106     1.0000 0.35959  0.65475  0.92898  Biso   1.000  C
  H82      1.0000 0.29289  0.71130  0.93299  Biso   1.000  H
  C107     1.0000 0.29812  0.58703  0.89079  Biso   1.000  C
  H83      1.0000 0.19089  0.59819  0.87066  Biso   1.000  H
  C108     1.0000 0.43410  0.30283  0.78268  Biso   1.000  C
  H84      1.0000 0.38861  0.30189  0.69507  Biso   1.000  H
  C109     1.0000 0.56590  0.30283  0.78268  Biso   1.000  C
  H85      1.0000 0.61139  0.30189  0.69507  Biso   1.000  H
  C110     1.0000 0.78967  0.71727  0.78168  Biso   1.000  C
  H86      1.0000 0.75436  0.73548  0.69630  Biso   1.000  H
  C111     1.0000 0.89337  0.66671  0.78329  Biso   1.000  C
  H87      1.0000 0.93011  0.64979  0.69441  Biso   1.000  H
  C112     1.0000 0.36289  0.60765  0.91187  Biso   1.000  C
  H88      1.0000 0.40199  0.66989  0.94528  Biso   1.000  H
  H89      1.0000 0.29768  0.55490  0.88007  Biso   1.000  H
  H90      1.0000 0.38861  0.30189  0.80489  Biso   1.000  H
  C113     1.0000 0.49997  0.30416  0.81627  Biso   1.000  C
  H91      1.0000 0.61139  0.30189  0.80489  Biso   1.000  H
  C114     1.0000 0.84089  0.69079  0.81585  Biso   1.000  C
  H92      1.0000 0.75436  0.73548  0.80366  Biso   1.000  H
  H93      1.0000 0.93011  0.64979  0.80559  Biso   1.000  H
  C115     1.0000 0.43333  0.58131  0.91532  Biso   1.000  C
  C116     1.0000 0.49997  0.30883  0.88716  Biso   1.000  C
  C117     1.0000 0.83389  0.68646  0.88716  Biso   1.000  C
  C118     1.0000 0.43377  0.53274  0.91768  Biso   1.000  C
  C119     1.0000 0.49997  0.60524  0.91348  Biso   1.000  C
  N11      1.0000 0.49997  0.35980  0.90436  Biso   1.000  N
  H94      1.0000 0.45580  0.29351  0.90497  Biso   1.000  H
  H95      1.0000 0.54420  0.29351  0.90497  Biso   1.000  H
  N12      1.0000 0.76610  0.65834  0.90067  Biso   1.000  N
  H96      1.0000 0.82971  0.71779  0.90658  Biso   1.000  H
  H97      1.0000 0.87779  0.67080  0.90488  Biso   1.000  H
  C120     1.0000 0.49997  0.50752  0.91877  Biso   1.000  C
  H98      1.0000 0.38828  0.51638  0.91858  Biso   1.000  H
  C121     1.0000 0.56667  0.58131  0.91532  Biso   1.000  C
  H99      1.0000 0.49997  0.63838  0.91097  Biso   1.000  H
  C122     1.0000 0.43598  0.38272  0.90899  Biso   1.000  C
  C123     1.0000 0.56397  0.38272  0.90899  Biso   1.000  C
  C124     1.0000 0.70557  0.67913  0.92217  Biso   1.000  C
  C125     1.0000 0.76527  0.61271  0.88536  Biso   1.000  C
  C126     1.0000 0.49997  0.45613  0.91806  Biso   1.000  C
  C127     1.0000 0.56623  0.53274  0.91768  Biso   1.000  C
  C128     1.0000 0.63711  0.60765  0.91187  Biso   1.000  C
  H100     1.0000 0.39098  0.36591  0.90748  Biso   1.000  H
  C129     1.0000 0.43498  0.43024  0.91589  Biso   1.000  C
  H101     1.0000 0.60897  0.36591  0.90748  Biso   1.000  H
  C130     1.0000 0.56502  0.43024  0.91589  Biso   1.000  C
  C131     1.0000 0.64041  0.65475  0.92898  Biso   1.000  C
  H102     1.0000 0.70711  0.71130  0.93299  Biso   1.000  H
  C132     1.0000 0.70188  0.58703  0.89079  Biso   1.000  C
  H103     1.0000 0.80911  0.59819  0.87066  Biso   1.000  H
  H104     1.0000 0.61166  0.51638  0.91858  Biso   1.000  H
  H105     1.0000 0.38900  0.44591  0.91919  Biso   1.000  H
  H106     1.0000 0.61100  0.44591  0.91919  Biso   1.000  H
  H107     1.0000 0.59801  0.66989  0.94528  Biso   1.000  H
  H108     1.0000 0.70226  0.55490  0.88007  Biso   1.000  H
  C133     1.0000 0.28970  0.21728  0.71827  Biso   1.000  C
  C134     1.0000 0.34092  0.19080  0.68410  Biso   1.000  C
  C135     1.0000 0.34086  0.19080  0.68410  Biso   1.000  C
  C136     1.0000 0.28970  0.21728  0.78168  Biso   1.000  C
  H109     1.0000 0.25439  0.23550  0.69630  Biso   1.000  H
  C137     1.0000 0.33387  0.18648  0.61280  Biso   1.000  C
  C138     1.0000 0.39340  0.16673  0.71666  Biso   1.000  C
  H110     1.0000 0.25439  0.23550  0.80366  Biso   1.000  H
  C139     1.0000 0.34092  0.19080  0.81585  Biso   1.000  C
  C140     1.0000 0.34086  0.19080  0.81585  Biso   1.000  C
  N13      1.0000 0.26607  0.15832  0.59928  Biso   1.000  N
  H111     1.0000 0.32968  0.21781  0.59337  Biso   1.000  H
  H112     1.0000 0.37782  0.17081  0.59508  Biso   1.000  H
  H113     1.0000 0.37776  0.17081  0.59508  Biso   1.000  H
  C141     1.0000 0.39340  0.16673  0.78329  Biso   1.000  C
  H114     1.0000 0.43008  0.14981  0.69441  Biso   1.000  H
  C142     1.0000 0.33387  0.18648  0.88716  Biso   1.000  C
  C143     1.0000 0.20560  0.17915  0.57778  Biso   1.000  C
  C144     1.0000 0.26530  0.11272  0.61459  Biso   1.000  C
  H115     1.0000 0.43008  0.14981  0.80559  Biso   1.000  H
  H116     1.0000 0.32968  0.21781  0.90658  Biso   1.000  H
  H117     1.0000 0.37782  0.17081  0.90488  Biso   1.000  H
  N14      1.0000 0.26607  0.15832  0.90067  Biso   1.000  N
  H118     1.0000 0.37776  0.17081  0.90488  Biso   1.000  H
  C145     1.0000 0.14039  0.15473  0.57098  Biso   1.000  C
  H119     1.0000 0.20708  0.21128  0.56701  Biso   1.000  H
  C146     1.0000 0.20191  0.08705  0.60921  Biso   1.000  C
  H120     1.0000 0.30908  0.09821  0.62929  Biso   1.000  H
  C147     1.0000 0.20560  0.17915  0.92217  Biso   1.000  C
  C148     1.0000 0.26530  0.11272  0.88536  Biso   1.000  C
  C149     1.0000 0.13708  0.10763  0.58813  Biso   1.000  C
  H121     1.0000 0.09798  0.16991  0.55467  Biso   1.000  H
  H122     1.0000 0.20229  0.05491  0.61988  Biso   1.000  H
  C150     1.0000 0.14039  0.15473  0.92898  Biso   1.000  C
  H123     1.0000 0.20708  0.21128  0.93299  Biso   1.000  H
  H124     1.0000 0.30908  0.09821  0.87066  Biso   1.000  H
  C151     1.0000 0.20191  0.08705  0.89079  Biso   1.000  C
  C152     1.0000 0.06670  0.08132  0.58463  Biso   1.000  C
  C153     1.0000 0.06664  0.08132  0.58463  Biso   1.000  C
  C154     1.0000 0.13708  0.10763  0.91187  Biso   1.000  C
  H125     1.0000 0.09798  0.16991  0.94528  Biso   1.000  H
  H126     1.0000 0.20229  0.05491  0.88007  Biso   1.000  H
  C155     1.0000 0.00000  0.10526  0.58648  Biso   1.000  C
  C156     1.0000 0.06626  0.03273  0.58232  Biso   1.000  C
  C157     1.0000 0.06620  0.03273  0.58232  Biso   1.000  C
  C158     1.0000 0.06670  0.08132  0.91532  Biso   1.000  C
  C159     1.0000 0.06664  0.08132  0.91532  Biso   1.000  C
  H127     1.0000 0.00000  0.13840  0.58898  Biso   1.000  H
  C160     1.0000 0.93330  0.08132  0.58463  Biso   1.000  C
  C161     1.0000 0.00000  0.00754  0.58118  Biso   1.000  C
  H128     1.0000 0.11169  0.01640  0.58137  Biso   1.000  H
  C162     1.0000 0.00000  0.10526  0.91348  Biso   1.000  C
  C163     1.0000 0.06626  0.03273  0.91768  Biso   1.000  C
  C164     1.0000 0.06620  0.03273  0.91768  Biso   1.000  C
  C165     1.0000 0.93374  0.03273  0.58232  Biso   1.000  C
  C166     1.0000 0.86292  0.10763  0.58813  Biso   1.000  C
  C167     1.0000 0.86286  0.10763  0.58813  Biso   1.000  C
  C168     1.0000 0.00000  0.95615  0.58189  Biso   1.000  C
  H129     1.0000 0.00000  0.13840  0.91097  Biso   1.000  H
  C169     1.0000 0.93330  0.08132  0.91532  Biso   1.000  C
  C170     1.0000 0.00000  0.00754  0.91877  Biso   1.000  C
  H130     1.0000 0.11169  0.01640  0.91858  Biso   1.000  H
  H131     1.0000 0.88831  0.01640  0.58137  Biso   1.000  H
  C171     1.0000 0.79809  0.08705  0.60921  Biso   1.000  C
  C172     1.0000 0.85956  0.15473  0.57098  Biso   1.000  C
  C173     1.0000 0.93501  0.93022  0.58407  Biso   1.000  C
  C174     1.0000 0.06499  0.93022  0.58407  Biso   1.000  C
  C175     1.0000 0.93374  0.03273  0.91768  Biso   1.000  C
  C176     1.0000 0.86292  0.10763  0.91187  Biso   1.000  C
  C177     1.0000 0.86286  0.10763  0.91187  Biso   1.000  C
  C178     1.0000 0.00000  0.95615  0.91806  Biso   1.000  C
  H132     1.0000 0.90202  0.16991  0.55467  Biso   1.000  H
  C179     1.0000 0.79440  0.17915  0.57778  Biso   1.000  C
  H133     1.0000 0.90197  0.16991  0.55467  Biso   1.000  H
  C180     1.0000 0.73470  0.11272  0.61459  Biso   1.000  C
  H134     1.0000 0.79771  0.05491  0.61988  Biso   1.000  H
  C181     1.0000 0.93600  0.88274  0.59096  Biso   1.000  C
  H135     1.0000 0.88897  0.94589  0.58081  Biso   1.000  H
  C182     1.0000 0.06400  0.88274  0.59096  Biso   1.000  C
  H136     1.0000 0.11098  0.94589  0.58081  Biso   1.000  H
  H137     1.0000 0.88831  0.01640  0.91858  Biso   1.000  H
  C183     1.0000 0.79809  0.08705  0.89079  Biso   1.000  C
  C184     1.0000 0.85956  0.15473  0.92898  Biso   1.000  C
  C185     1.0000 0.93501  0.93022  0.91589  Biso   1.000  C
  C186     1.0000 0.06499  0.93022  0.91589  Biso   1.000  C
  N15      1.0000 0.73388  0.15832  0.59928  Biso   1.000  N
  H138     1.0000 0.79292  0.21128  0.56701  Biso   1.000  H
  H139     1.0000 0.79286  0.21128  0.56701  Biso   1.000  H
  H140     1.0000 0.69092  0.09821  0.62929  Biso   1.000  H
  H141     1.0000 0.69086  0.09821  0.62929  Biso   1.000  H
  H142     1.0000 0.89101  0.86589  0.59248  Biso   1.000  H
  N16      1.0000 0.00000  0.85978  0.59560  Biso   1.000  N
  H143     1.0000 0.10899  0.86589  0.59248  Biso   1.000  H
  C187     1.0000 0.79440  0.17915  0.92217  Biso   1.000  C
  H144     1.0000 0.90202  0.16991  0.94528  Biso   1.000  H
  H145     1.0000 0.90197  0.16991  0.94528  Biso   1.000  H
  C188     1.0000 0.73470  0.11272  0.88536  Biso   1.000  C
  H146     1.0000 0.79771  0.05491  0.88007  Biso   1.000  H
  C189     1.0000 0.93600  0.88274  0.90899  Biso   1.000  C
  H147     1.0000 0.88897  0.94589  0.91919  Biso   1.000  H
  C190     1.0000 0.06400  0.88274  0.90899  Biso   1.000  C
  H148     1.0000 0.11098  0.94589  0.91919  Biso   1.000  H
  C191     1.0000 0.66608  0.18648  0.61280  Biso   1.000  C
  C192     1.0000 0.00000  0.80885  0.61280  Biso   1.000  C
  N17      1.0000 0.73388  0.15832  0.90067  Biso   1.000  N
  H149     1.0000 0.79292  0.21128  0.93299  Biso   1.000  H
  H150     1.0000 0.79286  0.21128  0.93299  Biso   1.000  H
  H151     1.0000 0.69092  0.09821  0.87066  Biso   1.000  H
  H152     1.0000 0.69086  0.09821  0.87066  Biso   1.000  H
  N18      1.0000 0.00000  0.85978  0.90436  Biso   1.000  N
  H153     1.0000 0.89101  0.86589  0.90748  Biso   1.000  H
  H154     1.0000 0.10899  0.86589  0.90748  Biso   1.000  H
  H155     1.0000 0.67032  0.21781  0.59337  Biso   1.000  H
  H156     1.0000 0.62218  0.17081  0.59508  Biso   1.000  H
  C193     1.0000 0.65908  0.19080  0.68410  Biso   1.000  C
  H157     1.0000 0.67026  0.21781  0.59337  Biso   1.000  H
  H158     1.0000 0.95577  0.79350  0.59498  Biso   1.000  H
  C194     1.0000 0.00000  0.80417  0.68368  Biso   1.000  C
  H159     1.0000 0.04423  0.79350  0.59498  Biso   1.000  H
  H160     1.0000 0.04417  0.79350  0.59498  Biso   1.000  H
  C195     1.0000 0.66608  0.18648  0.88716  Biso   1.000  C
  C196     1.0000 0.00000  0.80885  0.88716  Biso   1.000  C
  C197     1.0000 0.71030  0.21728  0.71827  Biso   1.000  C
  C198     1.0000 0.60660  0.16673  0.71666  Biso   1.000  C
  C199     1.0000 0.93408  0.80285  0.71728  Biso   1.000  C
  C200     1.0000 0.06592  0.80285  0.71728  Biso   1.000  C
  C201     1.0000 0.06587  0.80285  0.71728  Biso   1.000  C
  C202     1.0000 0.65908  0.19080  0.81585  Biso   1.000  C
  H161     1.0000 0.67032  0.21781  0.90658  Biso   1.000  H
  H162     1.0000 0.62218  0.17081  0.90488  Biso   1.000  H
  H163     1.0000 0.67026  0.21781  0.90658  Biso   1.000  H
  C203     1.0000 0.00000  0.80417  0.81627  Biso   1.000  C
  H164     1.0000 0.95577  0.79350  0.90497  Biso   1.000  H
  H165     1.0000 0.04423  0.79350  0.90497  Biso   1.000  H
  H166     1.0000 0.04417  0.79350  0.90497  Biso   1.000  H
  C204     1.0000 0.71030  0.21728  0.78168  Biso   1.000  C
  H167     1.0000 0.74561  0.23550  0.69630  Biso   1.000  H
  C205     1.0000 0.60660  0.16673  0.78329  Biso   1.000  C
  H168     1.0000 0.56992  0.14981  0.69441  Biso   1.000  H
  C206     1.0000 0.93408  0.80285  0.78268  Biso   1.000  C
  H169     1.0000 0.88858  0.80190  0.69507  Biso   1.000  H
  C207     1.0000 0.06592  0.80285  0.78268  Biso   1.000  C
  H170     1.0000 0.11142  0.80190  0.69507  Biso   1.000  H
  C208     1.0000 0.06587  0.80285  0.78268  Biso   1.000  C
  H171     1.0000 0.11136  0.80190  0.69507  Biso   1.000  H
  H172     1.0000 0.74561  0.23550  0.80366  Biso   1.000  H
  H173     1.0000 0.56992  0.14981  0.80559  Biso   1.000  H
  H174     1.0000 0.88858  0.80190  0.80489  Biso   1.000  H
  H175     1.0000 0.11142  0.80190  0.80489  Biso   1.000  H
  H176     1.0000 0.11136  0.80190  0.80489  Biso   1.000  H
  C209     1.0000 0.28970  0.78272  0.28168  Biso   1.000  C
  H177     1.0000 0.25439  0.76450  0.30370  Biso   1.000  H
  C210     1.0000 0.28970  0.78272  0.21832  Biso   1.000  C
  C211     1.0000 0.34092  0.80920  0.31585  Biso   1.000  C
  C212     1.0000 0.34086  0.80920  0.31585  Biso   1.000  C
  H178     1.0000 0.25439  0.76450  0.19630  Biso   1.000  H
  C213     1.0000 0.34092  0.80920  0.18410  Biso   1.000  C
  C214     1.0000 0.34086  0.80920  0.18410  Biso   1.000  C
  C215     1.0000 0.39340  0.83327  0.28329  Biso   1.000  C
  C216     1.0000 0.33387  0.81352  0.38720  Biso   1.000  C
  C217     1.0000 0.39340  0.83327  0.21671  Biso   1.000  C
  C218     1.0000 0.33387  0.81352  0.11280  Biso   1.000  C
  H179     1.0000 0.43008  0.85019  0.30559  Biso   1.000  H
  H180     1.0000 0.32968  0.78219  0.40658  Biso   1.000  H
  H181     1.0000 0.37782  0.82919  0.40488  Biso   1.000  H
  N19      1.0000 0.26607  0.84164  0.40067  Biso   1.000  N
  H182     1.0000 0.37776  0.82919  0.40488  Biso   1.000  H
  H183     1.0000 0.43008  0.85019  0.19441  Biso   1.000  H
  H184     1.0000 0.32968  0.78219  0.09337  Biso   1.000  H
  H185     1.0000 0.37782  0.82919  0.09508  Biso   1.000  H
  N20      1.0000 0.26607  0.84164  0.09928  Biso   1.000  N
  H186     1.0000 0.37776  0.82919  0.09508  Biso   1.000  H
  C219     1.0000 0.20560  0.82085  0.42217  Biso   1.000  C
  C220     1.0000 0.26530  0.88728  0.38541  Biso   1.000  C
  C221     1.0000 0.20560  0.82085  0.07778  Biso   1.000  C
  C222     1.0000 0.26530  0.88728  0.11459  Biso   1.000  C
  C223     1.0000 0.14039  0.84524  0.42898  Biso   1.000  C
  H187     1.0000 0.20708  0.78868  0.43299  Biso   1.000  H
  H188     1.0000 0.30908  0.90179  0.37071  Biso   1.000  H
  C224     1.0000 0.20191  0.91295  0.39079  Biso   1.000  C
  C225     1.0000 0.14039  0.84524  0.07098  Biso   1.000  C
  H189     1.0000 0.20708  0.78868  0.06701  Biso   1.000  H
  H190     1.0000 0.30908  0.90179  0.12929  Biso   1.000  H
  C226     1.0000 0.20191  0.91295  0.10921  Biso   1.000  C
  C227     1.0000 0.13708  0.89234  0.41187  Biso   1.000  C
  H191     1.0000 0.09798  0.83009  0.44528  Biso   1.000  H
  H192     1.0000 0.20229  0.94509  0.38007  Biso   1.000  H
  C228     1.0000 0.13708  0.89234  0.08813  Biso   1.000  C
  H193     1.0000 0.09798  0.83009  0.05472  Biso   1.000  H
  H194     1.0000 0.20229  0.94509  0.11988  Biso   1.000  H
  C229     1.0000 0.06670  0.91868  0.41532  Biso   1.000  C
  C230     1.0000 0.06664  0.91868  0.41532  Biso   1.000  C
  C231     1.0000 0.06670  0.91868  0.08468  Biso   1.000  C
  C232     1.0000 0.06664  0.91868  0.08468  Biso   1.000  C
  C233     1.0000 0.00000  0.89474  0.41348  Biso   1.000  C
  C234     1.0000 0.06626  0.96724  0.41768  Biso   1.000  C
  C235     1.0000 0.06620  0.96724  0.41768  Biso   1.000  C
  C236     1.0000 0.00000  0.89474  0.08648  Biso   1.000  C
  C237     1.0000 0.06626  0.96724  0.08232  Biso   1.000  C
  C238     1.0000 0.06620  0.96724  0.08232  Biso   1.000  C
  H195     1.0000 0.00000  0.86160  0.41097  Biso   1.000  H
  C239     1.0000 0.93330  0.91868  0.41532  Biso   1.000  C
  C240     1.0000 0.00000  0.99246  0.41877  Biso   1.000  C
  H196     1.0000 0.11169  0.98360  0.41858  Biso   1.000  H
  H197     1.0000 0.00000  0.86160  0.08898  Biso   1.000  H
  C241     1.0000 0.93330  0.91868  0.08468  Biso   1.000  C
  C242     1.0000 0.00000  0.99246  0.08118  Biso   1.000  C
  H198     1.0000 0.11169  0.98360  0.08142  Biso   1.000  H
  C243     1.0000 0.93374  0.96724  0.41768  Biso   1.000  C
  C244     1.0000 0.86292  0.89234  0.41187  Biso   1.000  C
  C245     1.0000 0.86286  0.89234  0.41187  Biso   1.000  C
  C246     1.0000 0.00000  0.04385  0.41811  Biso   1.000  C
  C247     1.0000 0.93374  0.96724  0.08232  Biso   1.000  C
  C248     1.0000 0.86292  0.89234  0.08813  Biso   1.000  C
  C249     1.0000 0.86286  0.89234  0.08813  Biso   1.000  C
  C250     1.0000 0.00000  0.04385  0.08189  Biso   1.000  C
  H199     1.0000 0.88831  0.98360  0.41858  Biso   1.000  H
  C251     1.0000 0.79809  0.91295  0.39079  Biso   1.000  C
  C252     1.0000 0.85956  0.84524  0.42898  Biso   1.000  C
  C253     1.0000 0.93501  0.06974  0.41589  Biso   1.000  C
  C254     1.0000 0.06499  0.06974  0.41589  Biso   1.000  C
  H200     1.0000 0.88831  0.98360  0.08142  Biso   1.000  H
  C255     1.0000 0.79809  0.91295  0.10921  Biso   1.000  C
  C256     1.0000 0.85956  0.84524  0.07098  Biso   1.000  C
  C257     1.0000 0.93501  0.06974  0.08411  Biso   1.000  C
  C258     1.0000 0.06499  0.06974  0.08411  Biso   1.000  C
  H201     1.0000 0.90202  0.83009  0.44528  Biso   1.000  H
  C259     1.0000 0.79440  0.82085  0.42217  Biso   1.000  C
  H202     1.0000 0.90197  0.83009  0.44528  Biso   1.000  H
  C260     1.0000 0.73470  0.88728  0.38541  Biso   1.000  C
  H203     1.0000 0.79771  0.94509  0.38007  Biso   1.000  H
  C261     1.0000 0.93600  0.11726  0.40899  Biso   1.000  C
  H204     1.0000 0.88897  0.05408  0.41919  Biso   1.000  H
  C262     1.0000 0.06400  0.11726  0.40899  Biso   1.000  C
  H205     1.0000 0.11098  0.05408  0.41919  Biso   1.000  H
  H206     1.0000 0.90202  0.83009  0.05472  Biso   1.000  H
  C263     1.0000 0.79440  0.82085  0.07778  Biso   1.000  C
  H207     1.0000 0.90197  0.83009  0.05472  Biso   1.000  H
  C264     1.0000 0.73470  0.88728  0.11459  Biso   1.000  C
  H208     1.0000 0.79771  0.94509  0.11988  Biso   1.000  H
  C265     1.0000 0.93600  0.11726  0.09101  Biso   1.000  C
  H209     1.0000 0.88897  0.05408  0.08081  Biso   1.000  H
  C266     1.0000 0.06400  0.11726  0.09101  Biso   1.000  C
  H210     1.0000 0.11098  0.05408  0.08081  Biso   1.000  H
  N21      1.0000 0.73388  0.84164  0.40067  Biso   1.000  N
  H211     1.0000 0.79292  0.78868  0.43299  Biso   1.000  H
  H212     1.0000 0.79286  0.78868  0.43299  Biso   1.000  H
  H213     1.0000 0.69092  0.90179  0.37071  Biso   1.000  H
  H214     1.0000 0.69086  0.90179  0.37071  Biso   1.000  H
  H215     1.0000 0.89101  0.13408  0.40748  Biso   1.000  H
  N22      1.0000 0.00000  0.14018  0.40440  Biso   1.000  N
  H216     1.0000 0.10899  0.13408  0.40748  Biso   1.000  H
  N23      1.0000 0.73388  0.84164  0.09928  Biso   1.000  N
  H217     1.0000 0.79292  0.78868  0.06701  Biso   1.000  H
  H218     1.0000 0.79286  0.78868  0.06701  Biso   1.000  H
  H219     1.0000 0.69092  0.90179  0.12929  Biso   1.000  H
  H220     1.0000 0.69086  0.90179  0.12929  Biso   1.000  H
  H221     1.0000 0.89101  0.13408  0.09248  Biso   1.000  H
  N24      1.0000 0.00000  0.14018  0.09560  Biso   1.000  N
  H222     1.0000 0.10899  0.13408  0.09248  Biso   1.000  H
  C267     1.0000 0.66608  0.81352  0.38720  Biso   1.000  C
  C268     1.0000 0.00000  0.19115  0.38720  Biso   1.000  C
  C269     1.0000 0.66608  0.81352  0.11280  Biso   1.000  C
  C270     1.0000 0.00000  0.19115  0.11280  Biso   1.000  C
  H223     1.0000 0.67032  0.78219  0.40658  Biso   1.000  H
  H224     1.0000 0.62218  0.82919  0.40488  Biso   1.000  H
  C271     1.0000 0.65908  0.80920  0.31585  Biso   1.000  C
  H225     1.0000 0.67026  0.78219  0.40658  Biso   1.000  H
  H226     1.0000 0.95577  0.20650  0.40497  Biso   1.000  H
  C272     1.0000 0.00000  0.19583  0.31627  Biso   1.000  C
  H227     1.0000 0.04423  0.20650  0.40497  Biso   1.000  H
  H228     1.0000 0.04417  0.20650  0.40497  Biso   1.000  H
  H229     1.0000 0.67032  0.78219  0.09337  Biso   1.000  H
  H230     1.0000 0.62218  0.82919  0.09508  Biso   1.000  H
  C273     1.0000 0.65908  0.80920  0.18410  Biso   1.000  C
  H231     1.0000 0.67026  0.78219  0.09337  Biso   1.000  H
  H232     1.0000 0.95577  0.20650  0.09498  Biso   1.000  H
  C274     1.0000 0.00000  0.19583  0.18368  Biso   1.000  C
  H233     1.0000 0.04423  0.20650  0.09498  Biso   1.000  H
  H234     1.0000 0.04417  0.20650  0.09498  Biso   1.000  H
  C275     1.0000 0.71030  0.78272  0.28168  Biso   1.000  C
  C276     1.0000 0.60660  0.83327  0.28329  Biso   1.000  C
  C277     1.0000 0.93408  0.19715  0.28268  Biso   1.000  C
  C278     1.0000 0.06592  0.19715  0.28268  Biso   1.000  C
  C279     1.0000 0.06587  0.19715  0.28268  Biso   1.000  C
  C280     1.0000 0.71030  0.78272  0.21832  Biso   1.000  C
  C281     1.0000 0.60660  0.83327  0.21671  Biso   1.000  C
  C282     1.0000 0.93408  0.19715  0.21728  Biso   1.000  C
  C283     1.0000 0.06592  0.19715  0.21728  Biso   1.000  C
  C284     1.0000 0.06587  0.19715  0.21728  Biso   1.000  C
  H235     1.0000 0.74561  0.76450  0.30370  Biso   1.000  H
  H236     1.0000 0.56992  0.85019  0.30559  Biso   1.000  H
  H237     1.0000 0.88858  0.19810  0.30489  Biso   1.000  H
  H238     1.0000 0.11142  0.19810  0.30489  Biso   1.000  H
  H239     1.0000 0.11136  0.19810  0.30489  Biso   1.000  H
  H240     1.0000 0.74561  0.76450  0.19630  Biso   1.000  H
  H241     1.0000 0.56992  0.85019  0.19441  Biso   1.000  H
  H242     1.0000 0.88858  0.19810  0.19511  Biso   1.000  H
  H243     1.0000 0.11142  0.19810  0.19511  Biso   1.000  H
  H244     1.0000 0.11136  0.19810  0.19511  Biso   1.000  H
