data_image0
_cell_length_a       23.134
_cell_length_b       30.56
_cell_length_c       18.206
_cell_angle_alpha    90
_cell_angle_beta     120.76
_cell_angle_gamma    90

_symmetry_space_group_name_H-M    "P 1"
_symmetry_int_tables_number       1

loop_
  _symmetry_equiv_pos_as_xyz
  'x, y, z'

loop_
  _atom_site_label
  _atom_site_occupancy
  _atom_site_fract_x
  _atom_site_fract_y
  _atom_site_fract_z
  _atom_site_thermal_displace_type
  _atom_site_B_iso_or_equiv
  _atom_site_type_symbol
  C1       1.0000 0.44971  0.33999  0.35565  Biso   1.000  C
  N1       1.0000 0.47181  0.34071  0.30144  Biso   1.000  N
  C2       1.0000 0.44111  0.37929  0.38863  Biso   1.000  C
  H1       1.0000 0.43969  0.31279  0.37220  Biso   1.000  H
  C3       1.0000 0.47161  0.30101  0.25779  Biso   1.000  C
  C4       1.0000 0.48460  0.37899  0.27651  Biso   1.000  C
  C5       1.0000 0.45340  0.41891  0.36460  Biso   1.000  C
  H2       1.0000 0.42629  0.37840  0.42871  Biso   1.000  H
  C6       1.0000 0.39612  0.29339  0.18083  Biso   1.000  C
  H3       1.0000 0.48653  0.27579  0.29774  Biso   1.000  H
  H4       1.0000 0.50252  0.30389  0.23554  Biso   1.000  H
  H5       1.0000 0.49681  0.37889  0.23414  Biso   1.000  H
  C7       1.0000 0.48073  0.41731  0.30943  Biso   1.000  C
  C8       1.0000 0.43663  0.46230  0.39125  Biso   1.000  C
  C9       1.0000 0.35022  0.27330  0.18869  Biso   1.000  C
  C10      1.0000 0.37589  0.31211  0.10138  Biso   1.000  C
  H6       1.0000 0.49602  0.44329  0.29620  Biso   1.000  H
  C11      1.0000 0.40280  0.46149  0.43209  Biso   1.000  C
  C12      1.0000 0.45753  0.50000  0.37144  Biso   1.000  C
  C13      1.0000 0.28469  0.27690  0.13059  Biso   1.000  C
  H7       1.0000 0.36351  0.25530  0.23740  Biso   1.000  H
  C14      1.0000 0.30998  0.31440  0.03458  Biso   1.000  C
  H8       1.0000 0.40972  0.32421  0.09262  Biso   1.000  H
  C15      1.0000 0.38324  0.50000  0.45555  Biso   1.000  C
  H9       1.0000 0.39151  0.43410  0.44603  Biso   1.000  H
  H10      1.0000 0.48452  0.50000  0.34580  Biso   1.000  H
  C16      1.0000 0.43663  0.53770  0.39125  Biso   1.000  C
  H11      1.0000 0.25250  0.26551  0.14299  Biso   1.000  H
  C17      1.0000 0.26329  0.29679  0.05337  Biso   1.000  C
  H12      1.0000 0.29760  0.32680  0.98063  Biso   1.000  H
  C18      1.0000 0.34941  0.50000  0.50413  Biso   1.000  C
  C19      1.0000 0.40280  0.53851  0.43209  Biso   1.000  C
  C20      1.0000 0.45340  0.58109  0.36460  Biso   1.000  C
  C21      1.0000 0.18853  0.29971  0.98319  Biso   1.000  C
  C22      1.0000 0.33273  0.46090  0.52874  Biso   1.000  C
  C23      1.0000 0.33273  0.53910  0.52874  Biso   1.000  C
  H13      1.0000 0.39151  0.56590  0.44603  Biso   1.000  H
  C24      1.0000 0.44111  0.62071  0.38863  Biso   1.000  C
  C25      1.0000 0.48073  0.58269  0.30943  Biso   1.000  C
  N2       1.0000 0.16181  0.34031  0.99917  Biso   1.000  N
  H14      1.0000 0.18382  0.30079  0.92605  Biso   1.000  H
  H15      1.0000 0.16364  0.27399  0.98568  Biso   1.000  H
  C26      1.0000 0.29384  0.46129  0.56735  Biso   1.000  C
  H16      1.0000 0.34793  0.43380  0.51915  Biso   1.000  H
  C27      1.0000 0.29384  0.53871  0.56735  Biso   1.000  C
  H17      1.0000 0.34793  0.56620  0.51915  Biso   1.000  H
  H18      1.0000 0.42629  0.62160  0.42871  Biso   1.000  H
  C28      1.0000 0.44971  0.66001  0.35565  Biso   1.000  C
  C29      1.0000 0.48460  0.62101  0.27651  Biso   1.000  C
  H19      1.0000 0.49602  0.55671  0.29620  Biso   1.000  H
  C30      1.0000 0.13800  0.34179  0.05030  Biso   1.000  C
  C31      1.0000 0.16722  0.37889  0.96504  Biso   1.000  C
  N3       1.0000 0.28321  0.50000  0.59592  Biso   1.000  N
  H20      1.0000 0.27501  0.43501  0.57361  Biso   1.000  H
  H21      1.0000 0.27501  0.56499  0.57361  Biso   1.000  H
  N4       1.0000 0.47181  0.65929  0.30144  Biso   1.000  N
  H22      1.0000 0.43969  0.68721  0.37220  Biso   1.000  H
  H23      1.0000 0.49681  0.62111  0.23414  Biso   1.000  H
  H24      1.0000 0.13653  0.31541  0.07683  Biso   1.000  H
  C32      1.0000 0.11510  0.37899  0.06763  Biso   1.000  C
  C33      1.0000 0.14652  0.41800  0.98063  Biso   1.000  C
  H25      1.0000 0.18601  0.37860  0.92924  Biso   1.000  H
  C34      1.0000 0.24170  0.50000  0.64111  Biso   1.000  C
  C35      1.0000 0.47161  0.69899  0.25779  Biso   1.000  C
  H26      1.0000 0.09329  0.37729  0.09978  Biso   1.000  H
  C36      1.0000 0.12279  0.41901  0.03937  Biso   1.000  C
  H27      1.0000 0.14792  0.44401  0.95296  Biso   1.000  H
  C37      1.0000 0.16312  0.50000  0.56863  Biso   1.000  C
  H28      1.0000 0.25263  0.52631  0.67761  Biso   1.000  H
  H29      1.0000 0.25263  0.47369  0.67761  Biso   1.000  H
  H30      1.0000 0.48653  0.72421  0.29774  Biso   1.000  H
  H31      1.0000 0.50252  0.69611  0.23554  Biso   1.000  H
  C38      1.0000 0.39612  0.70661  0.18083  Biso   1.000  C
  C39      1.0000 0.10340  0.45978  0.05951  Biso   1.000  C
  C40      1.0000 0.13673  0.46119  0.54172  Biso   1.000  C
  C41      1.0000 0.13673  0.53881  0.54172  Biso   1.000  C
  C42      1.0000 0.35022  0.72670  0.18869  Biso   1.000  C
  C43      1.0000 0.37589  0.68789  0.10138  Biso   1.000  C
  C44      1.0000 0.11840  0.50000  0.03599  Biso   1.000  C
  C45      1.0000 0.06691  0.46181  0.10233  Biso   1.000  C
  C46      1.0000 0.06613  0.46289  0.47543  Biso   1.000  C
  H32      1.0000 0.16120  0.43469  0.56332  Biso   1.000  H
  C47      1.0000 0.06613  0.53711  0.47543  Biso   1.000  C
  H33      1.0000 0.16120  0.56531  0.56332  Biso   1.000  H
  C48      1.0000 0.28469  0.72310  0.13059  Biso   1.000  C
  H34      1.0000 0.36351  0.74470  0.23740  Biso   1.000  H
  C49      1.0000 0.30998  0.68560  0.03458  Biso   1.000  C
  H35      1.0000 0.40972  0.67579  0.09262  Biso   1.000  H
  H36      1.0000 0.13941  0.50000  0.00281  Biso   1.000  H
  C50      1.0000 0.10340  0.54022  0.05951  Biso   1.000  C
  H37      1.0000 0.05511  0.43491  0.11748  Biso   1.000  H
  C51      1.0000 0.04730  0.50000  0.12343  Biso   1.000  C
  C52      1.0000 0.03121  0.50000  0.44290  Biso   1.000  C
  H38      1.0000 0.04321  0.43590  0.45370  Biso   1.000  H
  H39      1.0000 0.04321  0.56410  0.45370  Biso   1.000  H
  C53      1.0000 0.26329  0.70321  0.05337  Biso   1.000  C
  H40      1.0000 0.25250  0.73449  0.14299  Biso   1.000  H
  H41      1.0000 0.29760  0.67320  0.98063  Biso   1.000  H
  C54      1.0000 0.12279  0.58099  0.03937  Biso   1.000  C
  C55      1.0000 0.06691  0.53819  0.10233  Biso   1.000  C
  C56      1.0000 0.01623  0.50000  0.17533  Biso   1.000  C
  C57      1.0000 0.96333  0.50000  0.36843  Biso   1.000  C
  C58      1.0000 0.18853  0.70029  0.98319  Biso   1.000  C
  C59      1.0000 0.11510  0.62101  0.06763  Biso   1.000  C
  C60      1.0000 0.14652  0.58200  0.98063  Biso   1.000  C
  H42      1.0000 0.05511  0.56509  0.11748  Biso   1.000  H
  C61      1.0000 0.00143  0.46080  0.20352  Biso   1.000  C
  C62      1.0000 0.00143  0.53920  0.20352  Biso   1.000  C
  N5       1.0000 0.96944  0.50000  0.28514  Biso   1.000  N
  H43      1.0000 0.93853  0.52631  0.36901  Biso   1.000  H
  H44      1.0000 0.93853  0.47369  0.36901  Biso   1.000  H
  N6       1.0000 0.16181  0.65969  0.99917  Biso   1.000  N
  H45      1.0000 0.18382  0.69921  0.92605  Biso   1.000  H
  H46      1.0000 0.16364  0.72601  0.98568  Biso   1.000  H
  C63      1.0000 0.13800  0.65821  0.05030  Biso   1.000  C
  H47      1.0000 0.09329  0.62271  0.09978  Biso   1.000  H
  H48      1.0000 0.14792  0.55599  0.95296  Biso   1.000  H
  C64      1.0000 0.16722  0.62111  0.96504  Biso   1.000  C
  H49      1.0000 0.00831  0.43341  0.18454  Biso   1.000  H
  C65      1.0000 0.97794  0.46211  0.25664  Biso   1.000  C
  H50      1.0000 0.00831  0.56659  0.18454  Biso   1.000  H
  C66      1.0000 0.97794  0.53789  0.25664  Biso   1.000  C
  H51      1.0000 0.13653  0.68459  0.07683  Biso   1.000  H
  H52      1.0000 0.18601  0.62140  0.92924  Biso   1.000  H
  H53      1.0000 0.96704  0.43560  0.27434  Biso   1.000  H
  H54      1.0000 0.96704  0.56440  0.27434  Biso   1.000  H
  C67      1.0000 0.55034  0.33999  0.64443  Biso   1.000  C
  N7       1.0000 0.52824  0.34071  0.69864  Biso   1.000  N
  C68      1.0000 0.55894  0.37929  0.61145  Biso   1.000  C
  H55      1.0000 0.56034  0.31279  0.62782  Biso   1.000  H
  C69      1.0000 0.51545  0.37899  0.72357  Biso   1.000  C
  C70      1.0000 0.52841  0.30101  0.74223  Biso   1.000  C
  C71      1.0000 0.54663  0.41891  0.63542  Biso   1.000  C
  H56      1.0000 0.57373  0.37840  0.57131  Biso   1.000  H
  H57      1.0000 0.50324  0.37889  0.76594  Biso   1.000  H
  C72      1.0000 0.51932  0.41731  0.69065  Biso   1.000  C
  H58      1.0000 0.51352  0.27579  0.70235  Biso   1.000  H
  H59      1.0000 0.49753  0.30389  0.76454  Biso   1.000  H
  C73      1.0000 0.60393  0.29339  0.81925  Biso   1.000  C
  C74      1.0000 0.56341  0.46230  0.60883  Biso   1.000  C
  H60      1.0000 0.50404  0.44329  0.70382  Biso   1.000  H
  C75      1.0000 0.64985  0.27330  0.81133  Biso   1.000  C
  C76      1.0000 0.62413  0.31211  0.89864  Biso   1.000  C
  C77      1.0000 0.59722  0.46149  0.56792  Biso   1.000  C
  C78      1.0000 0.54251  0.50000  0.62865  Biso   1.000  C
  H61      1.0000 0.63651  0.25530  0.76262  Biso   1.000  H
  C79      1.0000 0.71533  0.27690  0.86943  Biso   1.000  C
  C80      1.0000 0.69005  0.31440  0.96544  Biso   1.000  C
  H62      1.0000 0.59033  0.32421  0.90746  Biso   1.000  H
  C81      1.0000 0.61681  0.50000  0.54453  Biso   1.000  C
  H63      1.0000 0.60854  0.43410  0.55405  Biso   1.000  H
  H64      1.0000 0.51550  0.50000  0.65421  Biso   1.000  H
  C82      1.0000 0.56341  0.53770  0.60883  Biso   1.000  C
  H65      1.0000 0.74752  0.26551  0.85703  Biso   1.000  H
  C83      1.0000 0.73673  0.29679  0.94664  Biso   1.000  C
  H66      1.0000 0.70242  0.32680  0.01938  Biso   1.000  H
  C84      1.0000 0.65064  0.50000  0.49595  Biso   1.000  C
  C85      1.0000 0.59722  0.53851  0.56792  Biso   1.000  C
  C86      1.0000 0.54663  0.58109  0.63542  Biso   1.000  C
  C87      1.0000 0.81152  0.29971  0.01689  Biso   1.000  C
  C88      1.0000 0.66732  0.46090  0.47134  Biso   1.000  C
  C89      1.0000 0.66732  0.53910  0.47134  Biso   1.000  C
  H67      1.0000 0.60854  0.56590  0.55405  Biso   1.000  H
  C90      1.0000 0.55894  0.62071  0.61145  Biso   1.000  C
  C91      1.0000 0.51932  0.58269  0.69065  Biso   1.000  C
  N8       1.0000 0.83824  0.34031  0.00091  Biso   1.000  N
  H68      1.0000 0.81621  0.30079  0.07397  Biso   1.000  H
  H69      1.0000 0.83641  0.27399  0.01440  Biso   1.000  H
  C92      1.0000 0.70620  0.46129  0.43273  Biso   1.000  C
  H70      1.0000 0.65212  0.43380  0.48093  Biso   1.000  H
  C93      1.0000 0.70620  0.53871  0.43273  Biso   1.000  C
  H71      1.0000 0.65212  0.56620  0.48093  Biso   1.000  H
  H72      1.0000 0.57373  0.62160  0.57131  Biso   1.000  H
  C94      1.0000 0.55034  0.66001  0.64443  Biso   1.000  C
  C95      1.0000 0.51545  0.62101  0.72357  Biso   1.000  C
  H73      1.0000 0.50404  0.55671  0.70382  Biso   1.000  H
  C96      1.0000 0.86205  0.34179  0.94978  Biso   1.000  C
  C97      1.0000 0.83280  0.37889  0.03498  Biso   1.000  C
  N9       1.0000 0.71681  0.50000  0.40410  Biso   1.000  N
  H74      1.0000 0.72501  0.43501  0.42641  Biso   1.000  H
  H75      1.0000 0.72501  0.56499  0.42641  Biso   1.000  H
  N10      1.0000 0.52824  0.65929  0.69864  Biso   1.000  N
  H76      1.0000 0.56034  0.68721  0.62782  Biso   1.000  H
  H77      1.0000 0.50324  0.62111  0.76594  Biso   1.000  H
  H78      1.0000 0.86352  0.31541  0.92325  Biso   1.000  H
  C98      1.0000 0.88495  0.37899  0.93245  Biso   1.000  C
  C99      1.0000 0.85350  0.41800  0.01938  Biso   1.000  C
  H79      1.0000 0.81401  0.37860  0.07078  Biso   1.000  H
  C100     1.0000 0.75832  0.50000  0.35891  Biso   1.000  C
  C101     1.0000 0.52841  0.69899  0.74223  Biso   1.000  C
  H80      1.0000 0.90674  0.37729  0.90024  Biso   1.000  H
  C102     1.0000 0.87723  0.41901  0.96064  Biso   1.000  C
  H81      1.0000 0.85210  0.44401  0.04706  Biso   1.000  H
  C103     1.0000 0.83690  0.50000  0.43139  Biso   1.000  C
  H82      1.0000 0.74739  0.52631  0.32241  Biso   1.000  H
  H83      1.0000 0.74739  0.47369  0.32241  Biso   1.000  H
  H84      1.0000 0.51352  0.72421  0.70235  Biso   1.000  H
  H85      1.0000 0.49753  0.69611  0.76454  Biso   1.000  H
  C104     1.0000 0.60393  0.70661  0.81925  Biso   1.000  C
  C105     1.0000 0.89664  0.45978  0.94057  Biso   1.000  C
  C106     1.0000 0.86329  0.46119  0.45830  Biso   1.000  C
  C107     1.0000 0.86329  0.53881  0.45830  Biso   1.000  C
  C108     1.0000 0.64985  0.72670  0.81133  Biso   1.000  C
  C109     1.0000 0.62413  0.68789  0.89864  Biso   1.000  C
  C110     1.0000 0.88162  0.50000  0.96403  Biso   1.000  C
  C111     1.0000 0.93314  0.46181  0.89775  Biso   1.000  C
  C112     1.0000 0.93391  0.46289  0.52465  Biso   1.000  C
  H86      1.0000 0.83882  0.43469  0.43670  Biso   1.000  H
  C113     1.0000 0.93391  0.53711  0.52465  Biso   1.000  C
  H87      1.0000 0.83882  0.56531  0.43670  Biso   1.000  H
  H88      1.0000 0.63651  0.74470  0.76262  Biso   1.000  H
  C114     1.0000 0.71533  0.72310  0.86943  Biso   1.000  C
  C115     1.0000 0.69005  0.68560  0.96544  Biso   1.000  C
  H89      1.0000 0.59033  0.67579  0.90746  Biso   1.000  H
  H90      1.0000 0.86063  0.50000  0.99727  Biso   1.000  H
  C116     1.0000 0.89664  0.54022  0.94057  Biso   1.000  C
  H91      1.0000 0.94491  0.43491  0.88253  Biso   1.000  H
  C117     1.0000 0.95275  0.50000  0.87665  Biso   1.000  C
  C118     1.0000 0.96881  0.50000  0.55712  Biso   1.000  C
  H92      1.0000 0.95681  0.43590  0.54632  Biso   1.000  H
  H93      1.0000 0.95681  0.56410  0.54632  Biso   1.000  H
  H94      1.0000 0.74752  0.73449  0.85703  Biso   1.000  H
  C119     1.0000 0.73673  0.70321  0.94664  Biso   1.000  C
  H95      1.0000 0.70242  0.67320  0.01938  Biso   1.000  H
  C120     1.0000 0.87723  0.58099  0.96064  Biso   1.000  C
  C121     1.0000 0.93314  0.53819  0.89775  Biso   1.000  C
  C122     1.0000 0.98381  0.50000  0.82475  Biso   1.000  C
  C123     1.0000 0.03672  0.50000  0.63165  Biso   1.000  C
  C124     1.0000 0.81152  0.70029  0.01689  Biso   1.000  C
  C125     1.0000 0.88495  0.62101  0.93245  Biso   1.000  C
  C126     1.0000 0.85350  0.58200  0.01938  Biso   1.000  C
  H96      1.0000 0.94491  0.56509  0.88253  Biso   1.000  H
  C127     1.0000 0.99862  0.46080  0.79656  Biso   1.000  C
  C128     1.0000 0.99862  0.53920  0.79656  Biso   1.000  C
  N11      1.0000 0.03061  0.50000  0.71494  Biso   1.000  N
  H97      1.0000 0.06149  0.52631  0.63101  Biso   1.000  H
  H98      1.0000 0.06149  0.47369  0.63101  Biso   1.000  H
  N12      1.0000 0.83824  0.65969  0.00091  Biso   1.000  N
  H99      1.0000 0.81621  0.69921  0.07397  Biso   1.000  H
  H100     1.0000 0.83641  0.72601  0.01440  Biso   1.000  H
  C129     1.0000 0.86205  0.65821  0.94978  Biso   1.000  C
  H101     1.0000 0.90674  0.62271  0.90024  Biso   1.000  H
  H102     1.0000 0.85210  0.55599  0.04706  Biso   1.000  H
  C130     1.0000 0.83280  0.62111  0.03498  Biso   1.000  C
  H103     1.0000 0.99174  0.43341  0.81555  Biso   1.000  H
  C131     1.0000 0.02211  0.46211  0.74345  Biso   1.000  C
  H104     1.0000 0.99174  0.56659  0.81555  Biso   1.000  H
  C132     1.0000 0.02211  0.53789  0.74345  Biso   1.000  C
  H105     1.0000 0.86352  0.68459  0.92325  Biso   1.000  H
  H106     1.0000 0.81401  0.62140  0.07078  Biso   1.000  H
  H107     1.0000 0.03301  0.43560  0.72574  Biso   1.000  H
  H108     1.0000 0.03301  0.56440  0.72574  Biso   1.000  H
  C133     1.0000 0.43391  0.03711  0.52465  Biso   1.000  C
  C134     1.0000 0.36329  0.03881  0.45830  Biso   1.000  C
  C135     1.0000 0.46881  0.00000  0.55712  Biso   1.000  C
  H109     1.0000 0.45681  0.06410  0.54632  Biso   1.000  H
  C136     1.0000 0.33690  0.00000  0.43139  Biso   1.000  C
  H110     1.0000 0.33882  0.06531  0.43670  Biso   1.000  H
  C137     1.0000 0.43391  0.96289  0.52465  Biso   1.000  C
  C138     1.0000 0.53672  0.00000  0.63165  Biso   1.000  C
  C139     1.0000 0.25832  0.00000  0.35891  Biso   1.000  C
  C140     1.0000 0.36329  0.96119  0.45830  Biso   1.000  C
  H111     1.0000 0.45681  0.93590  0.54632  Biso   1.000  H
  N13      1.0000 0.53065  0.00000  0.71494  Biso   1.000  N
  H112     1.0000 0.56154  0.02631  0.63101  Biso   1.000  H
  H113     1.0000 0.56154  0.97369  0.63101  Biso   1.000  H
  N14      1.0000 0.21681  0.00000  0.40410  Biso   1.000  N
  H114     1.0000 0.24743  0.02631  0.32241  Biso   1.000  H
  H115     1.0000 0.24743  0.97369  0.32241  Biso   1.000  H
  H116     1.0000 0.33882  0.93469  0.43670  Biso   1.000  H
  C141     1.0000 0.52215  0.03789  0.74345  Biso   1.000  C
  C142     1.0000 0.52215  0.96211  0.74345  Biso   1.000  C
  C143     1.0000 0.20620  0.03871  0.43273  Biso   1.000  C
  C144     1.0000 0.20620  0.96129  0.43273  Biso   1.000  C
  C145     1.0000 0.49866  0.03920  0.79656  Biso   1.000  C
  H117     1.0000 0.53305  0.06440  0.72574  Biso   1.000  H
  C146     1.0000 0.49866  0.96080  0.79656  Biso   1.000  C
  H118     1.0000 0.53305  0.93560  0.72574  Biso   1.000  H
  H119     1.0000 0.22501  0.06499  0.42641  Biso   1.000  H
  C147     1.0000 0.16732  0.03910  0.47134  Biso   1.000  C
  H120     1.0000 0.22501  0.93501  0.42641  Biso   1.000  H
  C148     1.0000 0.16732  0.96090  0.47134  Biso   1.000  C
  C149     1.0000 0.48386  0.00000  0.82475  Biso   1.000  C
  H121     1.0000 0.49174  0.06659  0.81555  Biso   1.000  H
  H122     1.0000 0.49174  0.93341  0.81555  Biso   1.000  H
  C150     1.0000 0.15064  0.00000  0.49595  Biso   1.000  C
  H123     1.0000 0.15212  0.06620  0.48093  Biso   1.000  H
  H124     1.0000 0.15212  0.93380  0.48093  Biso   1.000  H
  C151     1.0000 0.45275  0.00000  0.87665  Biso   1.000  C
  C152     1.0000 0.11681  0.00000  0.54453  Biso   1.000  C
  C153     1.0000 0.43314  0.03819  0.89775  Biso   1.000  C
  C154     1.0000 0.43314  0.96181  0.89775  Biso   1.000  C
  C155     1.0000 0.09722  0.03851  0.56792  Biso   1.000  C
  C156     1.0000 0.09722  0.96149  0.56792  Biso   1.000  C
  C157     1.0000 0.39664  0.04022  0.94057  Biso   1.000  C
  H125     1.0000 0.44495  0.06509  0.88253  Biso   1.000  H
  C158     1.0000 0.39664  0.95978  0.94057  Biso   1.000  C
  H126     1.0000 0.44495  0.93491  0.88253  Biso   1.000  H
  H127     1.0000 0.10854  0.06590  0.55405  Biso   1.000  H
  C159     1.0000 0.06341  0.03770  0.60883  Biso   1.000  C
  H128     1.0000 0.10854  0.93410  0.55405  Biso   1.000  H
  C160     1.0000 0.06341  0.96230  0.60883  Biso   1.000  C
  C161     1.0000 0.38162  0.00000  0.96403  Biso   1.000  C
  C162     1.0000 0.37723  0.08099  0.96064  Biso   1.000  C
  C163     1.0000 0.37723  0.91901  0.96064  Biso   1.000  C
  C164     1.0000 0.04251  0.00000  0.62865  Biso   1.000  C
  C165     1.0000 0.04663  0.08109  0.63542  Biso   1.000  C
  C166     1.0000 0.04663  0.91891  0.63542  Biso   1.000  C
  H129     1.0000 0.36063  0.00000  0.99727  Biso   1.000  H
  C167     1.0000 0.38495  0.12101  0.93245  Biso   1.000  C
  C168     1.0000 0.35350  0.08200  0.01938  Biso   1.000  C
  C169     1.0000 0.38495  0.87899  0.93245  Biso   1.000  C
  C170     1.0000 0.35350  0.91800  0.01938  Biso   1.000  C
  H130     1.0000 0.01554  0.00000  0.65421  Biso   1.000  H
  C171     1.0000 0.05894  0.12071  0.61145  Biso   1.000  C
  C172     1.0000 0.01936  0.08269  0.69065  Biso   1.000  C
  C173     1.0000 0.05894  0.87929  0.61145  Biso   1.000  C
  C174     1.0000 0.01936  0.91731  0.69065  Biso   1.000  C
  C175     1.0000 0.36205  0.15821  0.94978  Biso   1.000  C
  H131     1.0000 0.40674  0.12271  0.90024  Biso   1.000  H
  H132     1.0000 0.35210  0.05599  0.04706  Biso   1.000  H
  C176     1.0000 0.33280  0.12111  0.03498  Biso   1.000  C
  C177     1.0000 0.36205  0.84179  0.94978  Biso   1.000  C
  H133     1.0000 0.40674  0.87729  0.90024  Biso   1.000  H
  H134     1.0000 0.35210  0.94401  0.04706  Biso   1.000  H
  C178     1.0000 0.33280  0.87889  0.03498  Biso   1.000  C
  H135     1.0000 0.07373  0.12160  0.57131  Biso   1.000  H
  C179     1.0000 0.05034  0.16001  0.64443  Biso   1.000  C
  C180     1.0000 0.01545  0.12101  0.72357  Biso   1.000  C
  H136     1.0000 0.00404  0.05671  0.70382  Biso   1.000  H
  H137     1.0000 0.07373  0.87840  0.57131  Biso   1.000  H
  C181     1.0000 0.05034  0.83999  0.64443  Biso   1.000  C
  C182     1.0000 0.01545  0.87899  0.72357  Biso   1.000  C
  H138     1.0000 0.00404  0.94329  0.70382  Biso   1.000  H
  H139     1.0000 0.36352  0.18459  0.92325  Biso   1.000  H
  N15      1.0000 0.33824  0.15969  0.00091  Biso   1.000  N
  H140     1.0000 0.31401  0.12140  0.07078  Biso   1.000  H
  H141     1.0000 0.36352  0.81541  0.92325  Biso   1.000  H
  N16      1.0000 0.33824  0.84031  0.00091  Biso   1.000  N
  H142     1.0000 0.31401  0.87860  0.07078  Biso   1.000  H
  N17      1.0000 0.02824  0.15929  0.69864  Biso   1.000  N
  H143     1.0000 0.06034  0.18721  0.62782  Biso   1.000  H
  H144     1.0000 0.00324  0.12111  0.76594  Biso   1.000  H
  N18      1.0000 0.02824  0.84071  0.69864  Biso   1.000  N
  H145     1.0000 0.06034  0.81279  0.62782  Biso   1.000  H
  H146     1.0000 0.00324  0.87889  0.76594  Biso   1.000  H
  C183     1.0000 0.31152  0.20029  0.01689  Biso   1.000  C
  C184     1.0000 0.31152  0.79971  0.01689  Biso   1.000  C
  C185     1.0000 0.02845  0.19899  0.74223  Biso   1.000  C
  C186     1.0000 0.02845  0.80101  0.74223  Biso   1.000  C
  C187     1.0000 0.23673  0.20321  0.94664  Biso   1.000  C
  H147     1.0000 0.31621  0.19921  0.07397  Biso   1.000  H
  H148     1.0000 0.33641  0.22601  0.01440  Biso   1.000  H
  C188     1.0000 0.23673  0.79679  0.94664  Biso   1.000  C
  H149     1.0000 0.31621  0.80079  0.07397  Biso   1.000  H
  H150     1.0000 0.33641  0.77399  0.01440  Biso   1.000  H
  H151     1.0000 0.01352  0.22421  0.70235  Biso   1.000  H
  C189     1.0000 0.10393  0.20661  0.81925  Biso   1.000  C
  H152     1.0000 0.99753  0.19611  0.76454  Biso   1.000  H
  H153     1.0000 0.99753  0.80389  0.76454  Biso   1.000  H
  H154     1.0000 0.01352  0.77579  0.70235  Biso   1.000  H
  C190     1.0000 0.10393  0.79339  0.81925  Biso   1.000  C
  C191     1.0000 0.21533  0.22310  0.86943  Biso   1.000  C
  C192     1.0000 0.19005  0.18560  0.96544  Biso   1.000  C
  C193     1.0000 0.21533  0.77690  0.86943  Biso   1.000  C
  C194     1.0000 0.19005  0.81440  0.96544  Biso   1.000  C
  C195     1.0000 0.14985  0.22670  0.81133  Biso   1.000  C
  C196     1.0000 0.12413  0.18789  0.89864  Biso   1.000  C
  C197     1.0000 0.14985  0.77330  0.81133  Biso   1.000  C
  C198     1.0000 0.12413  0.81211  0.89864  Biso   1.000  C
  H155     1.0000 0.24752  0.23449  0.85703  Biso   1.000  H
  H156     1.0000 0.20242  0.17320  0.01938  Biso   1.000  H
  H157     1.0000 0.24752  0.76551  0.85703  Biso   1.000  H
  H158     1.0000 0.20242  0.82680  0.01938  Biso   1.000  H
  H159     1.0000 0.13651  0.24470  0.76262  Biso   1.000  H
  H160     1.0000 0.09033  0.17579  0.90746  Biso   1.000  H
  H161     1.0000 0.13651  0.75530  0.76262  Biso   1.000  H
  H162     1.0000 0.09033  0.82421  0.90746  Biso   1.000  H
  Ne1      1.0000 0.25290  0.50000  0.24641  Biso   1.000  Ne
  He1      1.0000 0.22448  0.45671  0.29771  Biso   1.000  He
  He2      1.0000 0.22440  0.50000  0.26620  Biso   1.000  He
  He3      1.0000 0.27037  0.50209  0.23353  Biso   1.000  He
  Ar1      1.0000 0.25201  0.50000  0.24502  Biso   1.000  Ar
  Ne2      1.0000 0.24714  0.00000  0.75364  Biso   1.000  Ne
  He4      1.0000 0.22996  0.00237  0.76634  Biso   1.000  He
  He5      1.0000 0.28497  0.01513  0.70499  Biso   1.000  He
  He6      1.0000 0.27401  0.00000  0.73688  Biso   1.000  He
  Ar2      1.0000 0.24803  0.00000  0.75502  Biso   1.000  Ar
  Ne3      1.0000 0.74714  0.50000  0.75364  Biso   1.000  Ne
  He7      1.0000 0.72996  0.50237  0.76634  Biso   1.000  He
  He8      1.0000 0.78497  0.51514  0.70498  Biso   1.000  He
  He9      1.0000 0.77402  0.50000  0.73688  Biso   1.000  He
  Ar3      1.0000 0.74802  0.50000  0.75503  Biso   1.000  Ar
