data_image0
_cell_length_a       15.48
_cell_length_b       17.349
_cell_length_c       14.551
_cell_angle_alpha    113.69
_cell_angle_beta     93.69
_cell_angle_gamma    95.32

_symmetry_space_group_name_H-M    "P 1"
_symmetry_int_tables_number       1

loop_
  _symmetry_equiv_pos_as_xyz
  'x, y, z'

loop_
  _atom_site_label
  _atom_site_occupancy
  _atom_site_fract_x
  _atom_site_fract_y
  _atom_site_fract_z
  _atom_site_thermal_displace_type
  _atom_site_B_iso_or_equiv
  _atom_site_type_symbol
  C1       1.0000 0.19673  0.70984  0.42993  Biso   1.000  C
  O1       1.0000 0.29301  0.74890  0.46043  Biso   1.000  O
  C2       1.0000 0.17651  0.75998  0.35327  Biso   1.000  C
  H1       1.0000 0.19209  0.66419  0.39209  Biso   1.000  H
  H2       1.0000 0.18959  0.66018  0.36619  Biso   1.000  H
  C3       1.0000 0.14962  0.78267  0.41988  Biso   1.000  C
  H3       1.0000 0.17407  0.69377  0.48120  Biso   1.000  H
  C4       1.0000 0.31959  0.71647  0.52938  Biso   1.000  C
  C5       1.0000 0.22968  0.70492  0.37759  Biso   1.000  C
  C6       1.0000 0.10551  0.78942  0.42872  Biso   1.000  C
  H4       1.0000 0.21363  0.80950  0.35652  Biso   1.000  H
  H5       1.0000 0.14789  0.73012  0.28501  Biso   1.000  H
  H6       1.0000 0.17767  0.80332  0.37502  Biso   1.000  H
  O2       1.0000 0.15622  0.85062  0.52221  Biso   1.000  O
  H7       1.0000 0.08892  0.76230  0.39322  Biso   1.000  H
  C7       1.0000 0.34757  0.63738  0.49661  Biso   1.000  C
  C8       1.0000 0.32100  0.76619  0.63171  Biso   1.000  C
  H8       1.0000 0.25861  0.67350  0.31922  Biso   1.000  H
  H9       1.0000 0.07622  0.74178  0.43861  Biso   1.000  H
  H10      1.0000 0.06241  0.81592  0.40432  Biso   1.000  H
  C9       1.0000 0.12800  0.84623  0.60883  Biso   1.000  C
  O3       1.0000 0.33859  0.58657  0.39277  Biso   1.000  O
  C10      1.0000 0.37892  0.60598  0.56367  Biso   1.000  C
  C11      1.0000 0.35178  0.73311  0.69862  Biso   1.000  C
  C12      1.0000 0.29011  0.85368  0.66819  Biso   1.000  C
  C13      1.0000 0.19388  0.85009  0.68329  Biso   1.000  C
  C14      1.0000 0.04282  0.84268  0.62506  Biso   1.000  C
  C15      1.0000 0.41448  0.58251  0.34293  Biso   1.000  C
  C16      1.0000 0.38070  0.65370  0.66811  Biso   1.000  C
  O4       1.0000 0.41143  0.52991  0.53127  Biso   1.000  O
  H11      1.0000 0.35321  0.76588  0.76742  Biso   1.000  H
  H12      1.0000 0.29639  0.87292  0.61389  Biso   1.000  H
  C17      1.0000 0.34799  0.92009  0.76221  Biso   1.000  C
  C18      1.0000 0.16509  0.85216  0.77187  Biso   1.000  C
  O5       1.0000 0.98169  0.83612  0.54630  Biso   1.000  O
  C19      1.0000 0.01681  0.84380  0.71221  Biso   1.000  C
  C20      1.0000 0.38941  0.52272  0.23403  Biso   1.000  C
  H13      1.0000 0.45951  0.56181  0.37321  Biso   1.000  H
  H14      1.0000 0.43688  0.63841  0.34806  Biso   1.000  H
  C21      1.0000 0.41552  0.62042  0.74348  Biso   1.000  C
  C22      1.0000 0.36321  0.45908  0.44964  Biso   1.000  C
  C23      1.0000 0.33710  0.46049  0.50673  Biso   1.000  C
  H15      1.0000 0.34562  0.90123  0.81643  Biso   1.000  H
  H16      1.0000 0.32319  0.97311  0.78350  Biso   1.000  H
  C24      1.0000 0.44148  0.93730  0.74899  Biso   1.000  C
  C25      1.0000 0.07800  0.84909  0.79083  Biso   1.000  C
  H17      1.0000 0.20699  0.85589  0.82277  Biso   1.000  H
  C26      1.0000 0.94388  0.91213  0.56072  Biso   1.000  C
  O6       1.0000 0.92939  0.84682  0.73238  Biso   1.000  O
  C27      1.0000 0.30529  0.48308  0.19952  Biso   1.000  C
  C28      1.0000 0.45231  0.50929  0.16606  Biso   1.000  C
  C29      1.0000 0.34138  0.57142  0.77142  Biso   1.000  C
  H18      1.0000 0.45441  0.57921  0.70859  Biso   1.000  H
  C30      1.0000 0.47092  0.68920  0.83629  Biso   1.000  C
  C31      1.0000 0.37488  0.38088  0.46610  Biso   1.000  C
  H19      1.0000 0.30189  0.46638  0.44646  Biso   1.000  H
  H20      1.0000 0.38423  0.45441  0.38643  Biso   1.000  H
  H21      1.0000 0.33840  0.42327  0.43627  Biso   1.000  H
  C32      1.0000 0.32490  0.41380  0.54977  Biso   1.000  C
  H22      1.0000 0.28451  0.48738  0.50967  Biso   1.000  H
  H23      1.0000 0.46530  0.88383  0.72203  Biso   1.000  H
  H24      1.0000 0.44463  0.96163  0.69953  Biso   1.000  H
  C33      1.0000 0.49803  0.99672  0.84490  Biso   1.000  C
  C34      1.0000 0.04971  0.85220  0.89029  Biso   1.000  C
  C35      1.0000 0.87411  0.89083  0.47433  Biso   1.000  C
  H25      1.0000 0.91887  0.93279  0.62431  Biso   1.000  H
  H26      1.0000 0.98830  0.95590  0.56193  Biso   1.000  H
  C36      1.0000 0.86211  0.78563  0.66811  Biso   1.000  C
  C37      1.0000 0.28047  0.42923  0.09961  Biso   1.000  C
  H27      1.0000 0.26379  0.49291  0.24513  Biso   1.000  H
  C38      1.0000 0.42861  0.45487  0.06638  Biso   1.000  C
  H28      1.0000 0.50912  0.53670  0.18781  Biso   1.000  H
  C39      1.0000 0.32132  0.48360  0.72090  Biso   1.000  C
  C40      1.0000 0.29233  0.61269  0.84860  Biso   1.000  C
  H29      1.0000 0.48652  0.66540  0.88409  Biso   1.000  H
  H30      1.0000 0.43662  0.73490  0.86891  Biso   1.000  H
  C41      1.0000 0.55252  0.72461  0.80888  Biso   1.000  C
  C42      1.0000 0.32868  0.37348  0.54902  Biso   1.000  C
  H31      1.0000 0.33901  0.35844  0.50643  Biso   1.000  H
  H32      1.0000 0.43667  0.38011  0.48082  Biso   1.000  H
  H33      1.0000 0.35413  0.33168  0.40402  Biso   1.000  H
  O7       1.0000 0.37111  0.43812  0.64613  Biso   1.000  O
  H34      1.0000 0.26799  0.38152  0.54011  Biso   1.000  H
  H35      1.0000 0.26303  0.40740  0.55672  Biso   1.000  H
  H36      1.0000 0.49658  0.97130  0.89338  Biso   1.000  H
  H37      1.0000 0.47272  0.04930  0.87329  Biso   1.000  H
  C43      1.0000 0.59062  0.01694  0.83183  Biso   1.000  C
  C44      1.0000 0.03688  0.76421  0.89013  Biso   1.000  C
  C45      1.0000 0.10651  0.91740  0.98347  Biso   1.000  C
  H38      1.0000 0.99169  0.87092  0.89421  Biso   1.000  H
  C46      1.0000 0.84140  0.80868  0.41324  Biso   1.000  C
  C47      1.0000 0.84309  0.95638  0.45658  Biso   1.000  C
  C48      1.0000 0.79359  0.76407  0.71939  Biso   1.000  C
  C49      1.0000 0.90221  0.73483  0.65912  Biso   1.000  C
  H39      1.0000 0.83692  0.80631  0.62099  Biso   1.000  H
  H40      1.0000 0.88687  0.73453  0.62922  Biso   1.000  H
  H41      1.0000 0.86190  0.72230  0.59946  Biso   1.000  H
  C50      1.0000 0.19028  0.38510  0.05981  Biso   1.000  C
  C51      1.0000 0.34280  0.41500  0.03202  Biso   1.000  C
  H42      1.0000 0.47033  0.44439  0.02122  Biso   1.000  H
  C52      1.0000 0.25258  0.43959  0.74521  Biso   1.000  C
  C53      1.0000 0.22452  0.57093  0.87790  Biso   1.000  C
  H43      1.0000 0.30478  0.67140  0.88304  Biso   1.000  H
  H44      1.0000 0.53690  0.74181  0.75488  Biso   1.000  H
  H45      1.0000 0.58942  0.67997  0.78320  Biso   1.000  H
  C54      1.0000 0.60341  0.79838  0.89436  Biso   1.000  C
  H46      1.0000 0.33051  0.31729  0.54773  Biso   1.000  H
  H47      1.0000 0.61598  0.96460  0.80163  Biso   1.000  H
  H48      1.0000 0.59291  0.04502  0.78622  Biso   1.000  H
  C55      1.0000 0.64449  0.07458  0.93348  Biso   1.000  C
  C56      1.0000 0.10549  0.72892  0.91770  Biso   1.000  C
  C57      1.0000 0.95449  0.71721  0.86899  Biso   1.000  C
  H49      1.0000 0.16688  0.90772  0.97622  Biso   1.000  H
  H50      1.0000 0.10161  0.97338  0.98582  Biso   1.000  H
  C58      1.0000 0.08393  0.91669  0.08663  Biso   1.000  C
  C59      1.0000 0.77478  0.78889  0.33387  Biso   1.000  C
  H51      1.0000 0.86381  0.76490  0.42441  Biso   1.000  H
  C60      1.0000 0.77858  0.93842  0.37684  Biso   1.000  C
  H52      1.0000 0.86523  0.01242  0.49789  Biso   1.000  H
  C61      1.0000 0.81937  0.70668  0.77217  Biso   1.000  C
  C62      1.0000 0.86328  0.71332  0.72951  Biso   1.000  C
  H53      1.0000 0.80182  0.71702  0.71742  Biso   1.000  H
  H54      1.0000 0.77761  0.81610  0.76953  Biso   1.000  H
  H55      1.0000 0.74272  0.73542  0.67090  Biso   1.000  H
  H56      1.0000 0.95368  0.70690  0.63941  Biso   1.000  H
  O8       1.0000 0.14012  0.40421  0.14507  Biso   1.000  O
  H57      1.0000 0.16469  0.40480  0.01201  Biso   1.000  H
  H58      1.0000 0.19113  0.32430  0.02568  Biso   1.000  H
  H59      1.0000 0.32762  0.37919  0.96428  Biso   1.000  H
  O9       1.0000 0.23131  0.35452  0.69024  Biso   1.000  O
  C63      1.0000 0.20619  0.48397  0.82368  Biso   1.000  C
  C64      1.0000 0.17317  0.61901  0.96527  Biso   1.000  C
  H60      1.0000 0.58530  0.79543  0.95561  Biso   1.000  H
  H61      1.0000 0.58302  0.84871  0.89157  Biso   1.000  H
  C65      1.0000 0.69780  0.81510  0.90962  Biso   1.000  C
  C66      1.0000 0.65600  0.78971  0.96588  Biso   1.000  C
  H62      1.0000 0.70460  0.08288  0.92298  Biso   1.000  H
  H63      1.0000 0.62279  0.12848  0.96052  Biso   1.000  H
  H64      1.0000 0.63948  0.04839  0.98008  Biso   1.000  H
  C67      1.0000 0.09528  0.65201  0.92601  Biso   1.000  C
  H65      1.0000 0.16140  0.75858  0.93137  Biso   1.000  H
  C68      1.0000 0.94240  0.64071  0.87631  Biso   1.000  C
  O10      1.0000 0.88379  0.75240  0.84648  Biso   1.000  O
  C69      1.0000 0.99353  0.91852  0.10770  Biso   1.000  C
  H66      1.0000 0.11853  0.96543  0.14033  Biso   1.000  H
  H67      1.0000 0.10302  0.86632  0.09048  Biso   1.000  H
  C70      1.0000 0.74088  0.69984  0.26703  Biso   1.000  C
  C71      1.0000 0.74502  0.85499  0.31672  Biso   1.000  C
  H68      1.0000 0.75821  0.98230  0.36407  Biso   1.000  H
  H69      1.0000 0.83958  0.65612  0.72430  Biso   1.000  H
  H70      1.0000 0.76960  0.68958  0.79997  Biso   1.000  H
  H71      1.0000 0.86792  0.65331  0.70844  Biso   1.000  H
  C72      1.0000 0.05761  0.35933  0.12370  Biso   1.000  C
  C73      1.0000 0.25913  0.30020  0.73298  Biso   1.000  C
  O11      1.0000 0.13939  0.44049  0.85018  Biso   1.000  O
  H72      1.0000 0.14802  0.57751  0.98929  Biso   1.000  H
  C74      1.0000 0.22951  0.68779  0.05439  Biso   1.000  C
  H73      1.0000 0.72188  0.76172  0.88560  Biso   1.000  H
  H74      1.0000 0.71763  0.84590  0.87050  Biso   1.000  H
  C75      1.0000 0.73058  0.86649  0.02033  Biso   1.000  C
  C76      1.0000 0.01222  0.60818  0.90652  Biso   1.000  C
  O12      1.0000 0.85988  0.59580  0.85487  Biso   1.000  O
  H75      1.0000 0.97762  0.97338  0.11571  Biso   1.000  H
  H76      1.0000 0.95777  0.87618  0.04857  Biso   1.000  H
  C77      1.0000 0.96882  0.90342  0.19719  Biso   1.000  C
  O13      1.0000 0.76869  0.64546  0.30978  Biso   1.000  O
  H77      1.0000 0.76179  0.68502  0.20141  Biso   1.000  H
  H78      1.0000 0.67759  0.69311  0.25759  Biso   1.000  H
  H79      1.0000 0.70173  0.84332  0.26394  Biso   1.000  H
  C78      1.0000 0.04552  0.28283  0.13102  Biso   1.000  C
  C79      1.0000 0.98778  0.39180  0.09349  Biso   1.000  C
  C80      1.0000 0.22521  0.21107  0.66607  Biso   1.000  C
  H80      1.0000 0.23822  0.31502  0.79861  Biso   1.000  H
  H81      1.0000 0.32241  0.30693  0.74242  Biso   1.000  H
  C81      1.0000 0.07529  0.37871  0.77663  Biso   1.000  C
  C82      1.0000 0.05723  0.43292  0.78124  Biso   1.000  C
  H82      1.0000 0.19210  0.72200  0.10121  Biso   1.000  H
  H83      1.0000 0.26387  0.72452  0.03082  Biso   1.000  H
  C83      1.0000 0.28913  0.65373  0.10853  Biso   1.000  C
  H84      1.0000 0.79197  0.86438  0.03082  Biso   1.000  H
  H85      1.0000 0.72038  0.92443  0.03943  Biso   1.000  H
  H86      1.0000 0.70017  0.84321  0.06073  Biso   1.000  H
  O14      1.0000 0.99883  0.53572  0.92268  Biso   1.000  O
  C84      1.0000 0.80973  0.61488  0.94020  Biso   1.000  C
  H87      1.0000 0.91272  0.92292  0.21343  Biso   1.000  H
  C85      1.0000 0.96307  0.80959  0.18111  Biso   1.000  C
  H88      1.0000 0.01157  0.93700  0.25459  Biso   1.000  H
  C86      1.0000 0.74742  0.56039  0.25480  Biso   1.000  C
  O15      1.0000 0.11622  0.24759  0.15353  Biso   1.000  O
  C87      1.0000 0.96312  0.23577  0.10988  Biso   1.000  C
  O16      1.0000 0.00118  0.46432  0.07733  Biso   1.000  O
  C88      1.0000 0.90472  0.34797  0.07401  Biso   1.000  C
  C89      1.0000 0.15861  0.19130  0.58678  Biso   1.000  C
  C90      1.0000 0.25498  0.14499  0.68329  Biso   1.000  C
  H89      1.0000 0.06751  0.39107  0.71750  Biso   1.000  H
  H90      1.0000 0.09321  0.32262  0.75601  Biso   1.000  H
  C91      1.0000 0.99058  0.38258  0.82511  Biso   1.000  C
  H91      1.0000 0.04418  0.37570  0.72883  Biso   1.000  H
  C92      1.0000 0.98350  0.45378  0.84641  Biso   1.000  C
  H92      1.0000 0.06551  0.47212  0.74922  Biso   1.000  H
  H93      1.0000 0.25428  0.62692  0.14342  Biso   1.000  H
  H94      1.0000 0.31648  0.60967  0.05869  Biso   1.000  H
  C93      1.0000 0.36070  0.71792  0.18503  Biso   1.000  C
  C94      1.0000 0.94759  0.46341  0.83742  Biso   1.000  C
  C95      1.0000 0.71947  0.57082  0.90040  Biso   1.000  C
  H95      1.0000 0.83531  0.59519  0.98801  Biso   1.000  H
  H96      1.0000 0.80887  0.67569  0.97434  Biso   1.000  H
  H97      1.0000 0.94999  0.80470  0.24228  Biso   1.000  H
  H98      1.0000 0.91771  0.77650  0.12779  Biso   1.000  H
  H99      1.0000 0.01787  0.78921  0.16298  Biso   1.000  H
  C96      1.0000 0.79381  0.51601  0.17634  Biso   1.000  C
  C97      1.0000 0.67868  0.51639  0.27912  Biso   1.000  C
  C98      1.0000 0.18062  0.29328  0.22776  Biso   1.000  C
  C99      1.0000 0.13673  0.28672  0.27051  Biso   1.000  C
  C100     1.0000 0.95029  0.14778  0.10973  Biso   1.000  C
  C101     1.0000 0.89452  0.27113  0.08231  Biso   1.000  C
  C102     1.0000 0.05241  0.53657  0.16259  Biso   1.000  C
  C103     1.0000 0.01650  0.54621  0.15360  Biso   1.000  C
  C104     1.0000 0.82683  0.38100  0.03466  Biso   1.000  C
  C105     1.0000 0.12590  0.10921  0.52568  Biso   1.000  C
  H100     1.0000 0.13619  0.23509  0.57560  Biso   1.000  H
  C106     1.0000 0.22142  0.06156  0.62318  Biso   1.000  C
  H101     1.0000 0.29828  0.15672  0.73608  Biso   1.000  H
  H102     1.0000 0.00242  0.38179  0.89096  Biso   1.000  H
  H103     1.0000 0.94987  0.33258  0.78388  Biso   1.000  H
  H104     1.0000 0.97537  0.41331  0.87662  Biso   1.000  H
  H105     1.0000 0.94827  0.47280  0.77603  Biso   1.000  H
  H106     1.0000 0.92999  0.44821  0.80442  Biso   1.000  H
  H107     1.0000 0.38228  0.69517  0.23170  Biso   1.000  H
  H108     1.0000 0.33680  0.76959  0.22340  Biso   1.000  H
  C107     1.0000 0.43502  0.73791  0.13308  Biso   1.000  C
  H109     1.0000 0.88753  0.45690  0.85109  Biso   1.000  H
  C108     1.0000 0.69471  0.51690  0.80049  Biso   1.000  C
  C109     1.0000 0.65720  0.58499  0.96799  Biso   1.000  C
  C110     1.0000 0.77549  0.42912  0.12211  Biso   1.000  C
  O17      1.0000 0.86061  0.55949  0.14983  Biso   1.000  O
  C111     1.0000 0.65863  0.42862  0.22859  Biso   1.000  C
  O18      1.0000 0.62889  0.56192  0.35388  Biso   1.000  O
  C112     1.0000 0.20641  0.23591  0.28063  Biso   1.000  C
  H110     1.0000 0.19818  0.28302  0.28259  Biso   1.000  H
  H111     1.0000 0.16043  0.34392  0.27572  Biso   1.000  H
  H112     1.0000 0.23040  0.31038  0.19997  Biso   1.000  H
  C113     1.0000 0.09779  0.26521  0.34089  Biso   1.000  C
  H113     1.0000 0.13209  0.34667  0.29158  Biso   1.000  H
  C114     1.0000 0.92200  0.15089  0.20919  Biso   1.000  C
  H114     1.0000 0.00832  0.12912  0.10580  Biso   1.000  H
  C115     1.0000 0.89350  0.08261  0.01646  Biso   1.000  C
  H115     1.0000 0.83860  0.24138  0.06857  Biso   1.000  H
  C116     1.0000 0.00943  0.61740  0.17490  Biso   1.000  C
  H116     1.0000 0.11247  0.54309  0.14892  Biso   1.000  H
  H117     1.0000 0.05173  0.52718  0.22399  Biso   1.000  H
  H118     1.0000 0.02463  0.58667  0.12340  Biso   1.000  H
  C117     1.0000 0.94277  0.56707  0.21878  Biso   1.000  C
  H119     1.0000 0.07001  0.55178  0.19559  Biso   1.000  H
  C118     1.0000 0.77050  0.31220  0.94563  Biso   1.000  C
  H120     1.0000 0.85198  0.42253  0.01072  Biso   1.000  H
  C119     1.0000 0.05612  0.08792  0.43929  Biso   1.000  C
  C120     1.0000 0.15692  0.04361  0.54343  Biso   1.000  C
  H121     1.0000 0.24179  0.01766  0.63586  Biso   1.000  H
  H122     1.0000 0.41352  0.76428  0.09018  Biso   1.000  H
  H123     1.0000 0.45471  0.68520  0.09003  Biso   1.000  H
  C121     1.0000 0.50963  0.79408  0.20210  Biso   1.000  C
  C122     1.0000 0.61060  0.47727  0.76598  Biso   1.000  C
  H124     1.0000 0.73621  0.50707  0.75488  Biso   1.000  H
  C123     1.0000 0.57139  0.54511  0.93363  Biso   1.000  C
  H125     1.0000 0.67239  0.62080  0.03573  Biso   1.000  H
  C124     1.0000 0.70767  0.38730  0.15141  Biso   1.000  C
  C125     1.0000 0.92471  0.62128  0.22338  Biso   1.000  C
  C126     1.0000 0.58449  0.37962  0.25654  Biso   1.000  C
  C127     1.0000 0.67133  0.62651  0.45100  Biso   1.000  C
  C128     1.0000 0.67509  0.58616  0.45016  Biso   1.000  C
  C129     1.0000 0.13790  0.21441  0.33190  Biso   1.000  C
  H126     1.0000 0.22239  0.18388  0.23048  Biso   1.000  H
  H127     1.0000 0.25729  0.26462  0.32911  Biso   1.000  H
  H128     1.0000 0.13810  0.27772  0.40047  Biso   1.000  H
  H129     1.0000 0.04633  0.29308  0.36060  Biso   1.000  H
  C130     1.0000 0.98319  0.15618  0.28780  Biso   1.000  C
  C131     1.0000 0.83490  0.14779  0.22807  Biso   1.000  C
  C132     1.0000 0.91608  0.08329  0.91338  Biso   1.000  C
  H130     1.0000 0.83313  0.09232  0.02379  Biso   1.000  H
  H131     1.0000 0.89839  0.02661  0.01420  Biso   1.000  H
  H132     1.0000 0.05013  0.66740  0.21613  Biso   1.000  H
  H133     1.0000 0.99757  0.61817  0.10897  Biso   1.000  H
  H134     1.0000 0.93250  0.60891  0.28251  Biso   1.000  H
  H135     1.0000 0.95582  0.62428  0.27119  Biso   1.000  H
  H136     1.0000 0.93450  0.52792  0.25080  Biso   1.000  H
  H137     1.0000 0.80791  0.27799  0.89881  Biso   1.000  H
  H138     1.0000 0.73613  0.27552  0.96919  Biso   1.000  H
  C133     1.0000 0.71088  0.34632  0.89148  Biso   1.000  C
  O19      1.0000 0.01832  0.16392  0.45371  Biso   1.000  O
  H139     1.0000 0.08107  0.06720  0.37570  Biso   1.000  H
  H140     1.0000 0.01170  0.04408  0.43808  Biso   1.000  H
  H141     1.0000 0.13477  0.98762  0.50212  Biso   1.000  H
  H142     1.0000 0.55138  0.80900  0.16396  Biso   1.000  H
  H143     1.0000 0.49000  0.84462  0.24892  Biso   1.000  H
  H144     1.0000 0.53650  0.76540  0.23842  Biso   1.000  H
  C134     1.0000 0.58552  0.41747  0.65708  Biso   1.000  C
  C135     1.0000 0.54769  0.49067  0.83387  Biso   1.000  C
  H145     1.0000 0.52967  0.55560  0.97879  Biso   1.000  H
  H146     1.0000 0.69523  0.32858  0.11698  Biso   1.000  H
  H147     1.0000 0.90679  0.67742  0.24400  Biso   1.000  H
  C136     1.0000 0.61930  0.34628  0.33190  Biso   1.000  C
  H148     1.0000 0.54560  0.42083  0.29143  Biso   1.000  H
  C137     1.0000 0.52909  0.31079  0.16372  Biso   1.000  C
  C138     1.0000 0.62512  0.61910  0.53391  Biso   1.000  C
  H149     1.0000 0.66949  0.68270  0.45228  Biso   1.000  H
  H150     1.0000 0.73202  0.61852  0.45991  Biso   1.000  H
  H151     1.0000 0.73697  0.59259  0.44329  Biso   1.000  H
  H152     1.0000 0.66100  0.64160  0.49359  Biso   1.000  H
  C139     1.0000 0.66291  0.53950  0.49329  Biso   1.000  C
  O20      1.0000 0.07061  0.15322  0.26764  Biso   1.000  O
  H153     1.0000 0.16309  0.19373  0.37903  Biso   1.000  H
  H154     1.0000 0.11307  0.26551  0.37079  Biso   1.000  H
  C140     1.0000 0.95717  0.15728  0.37487  Biso   1.000  C
  C141     1.0000 0.80612  0.14990  0.31672  Biso   1.000  C
  H155     1.0000 0.79300  0.14407  0.17717  Biso   1.000  H
  H156     1.0000 0.88148  0.03461  0.85969  Biso   1.000  H
  H157     1.0000 0.89699  0.13372  0.90953  Biso   1.000  H
  C142     1.0000 0.00648  0.08153  0.89231  Biso   1.000  C
  H158     1.0000 0.74573  0.37312  0.85659  Biso   1.000  H
  H159     1.0000 0.68352  0.39031  0.94132  Biso   1.000  H
  C143     1.0000 0.63931  0.28207  0.81498  Biso   1.000  C
  O21      1.0000 0.66141  0.41339  0.60717  Biso   1.000  O
  H160     1.0000 0.54050  0.43823  0.62680  Biso   1.000  H
  H161     1.0000 0.56312  0.36160  0.65187  Biso   1.000  H
  H162     1.0000 0.49088  0.46328  0.81220  Biso   1.000  H
  C144     1.0000 0.64823  0.26687  0.30139  Biso   1.000  C
  C145     1.0000 0.62108  0.39398  0.43627  Biso   1.000  C
  H163     1.0000 0.51349  0.33459  0.11592  Biso   1.000  H
  H164     1.0000 0.56338  0.26509  0.13110  Biso   1.000  H
  C146     1.0000 0.44748  0.27544  0.19114  Biso   1.000  C
  C147     1.0000 0.63679  0.54090  0.55038  Biso   1.000  C
  H165     1.0000 0.66160  0.57669  0.56367  Biso   1.000  H
  H166     1.0000 0.56333  0.61987  0.51919  Biso   1.000  H
  H167     1.0000 0.64587  0.66830  0.59599  Biso   1.000  H
  O22      1.0000 0.58857  0.47011  0.46867  Biso   1.000  O
  H168     1.0000 0.69810  0.53357  0.55347  Biso   1.000  H
  H169     1.0000 0.71548  0.51258  0.49026  Biso   1.000  H
  C148     1.0000 0.87201  0.15381  0.39118  Biso   1.000  C
  C149     1.0000 0.70989  0.14631  0.33183  Biso   1.000  C
  H170     1.0000 0.02238  0.02661  0.88431  Biso   1.000  H
  H171     1.0000 0.04222  0.12378  0.95137  Biso   1.000  H
  C150     1.0000 0.03119  0.09662  0.80282  Biso   1.000  C
  H172     1.0000 0.61772  0.30481  0.76831  Biso   1.000  H
  H173     1.0000 0.66320  0.23039  0.77662  Biso   1.000  H
  C151     1.0000 0.56499  0.26213  0.86694  Biso   1.000  C
  C152     1.0000 0.65237  0.36261  0.50340  Biso   1.000  C
  C153     1.0000 0.67900  0.23380  0.36830  Biso   1.000  C
  H174     1.0000 0.64680  0.23411  0.23260  Biso   1.000  H
  H175     1.0000 0.46311  0.25823  0.24513  Biso   1.000  H
  H176     1.0000 0.41058  0.32001  0.21681  Biso   1.000  H
  C154     1.0000 0.39658  0.20158  0.10557  Biso   1.000  C
  H177     1.0000 0.61577  0.54557  0.61359  Biso   1.000  H
  O23      1.0000 0.84379  0.14942  0.47780  Biso   1.000  O
  H178     1.0000 0.70362  0.12712  0.38612  Biso   1.000  H
  C155     1.0000 0.65202  0.07989  0.23781  Biso   1.000  C
  H179     1.0000 0.98843  0.06299  0.74543  Biso   1.000  H
  H180     1.0000 0.08728  0.07707  0.78659  Biso   1.000  H
  C156     1.0000 0.03693  0.19039  0.81891  Biso   1.000  C
  H181     1.0000 0.58648  0.23571  0.90983  Biso   1.000  H
  H182     1.0000 0.54529  0.31478  0.90998  Biso   1.000  H
  C157     1.0000 0.49037  0.20590  0.79791  Biso   1.000  C
  C158     1.0000 0.68041  0.28351  0.47063  Biso   1.000  C
  H183     1.0000 0.41471  0.20462  0.04440  Biso   1.000  H
  H184     1.0000 0.41698  0.15131  0.10837  Biso   1.000  H
  C159     1.0000 0.30220  0.18488  0.09040  Biso   1.000  C
  C160     1.0000 0.34401  0.21034  0.03413  Biso   1.000  C
  C161     1.0000 0.89450  0.21062  0.57130  Biso   1.000  C
  C162     1.0000 0.85038  0.21731  0.58013  Biso   1.000  C
  H185     1.0000 0.65438  0.09882  0.18358  Biso   1.000  H
  H186     1.0000 0.67681  0.02693  0.21651  Biso   1.000  H
  C163     1.0000 0.55852  0.06268  0.25102  Biso   1.000  C
  H187     1.0000 0.98207  0.21083  0.83703  Biso   1.000  H
  H188     1.0000 0.05002  0.19534  0.75774  Biso   1.000  H
  H189     1.0000 0.08229  0.22349  0.87222  Biso   1.000  H
  H190     1.0000 0.44862  0.19101  0.83597  Biso   1.000  H
  H191     1.0000 0.51001  0.15542  0.75109  Biso   1.000  H
  H192     1.0000 0.46351  0.23459  0.76159  Biso   1.000  H
  O24      1.0000 0.70699  0.25108  0.53958  Biso   1.000  O
  C164     1.0000 0.26943  0.13349  0.97969  Biso   1.000  C
  H193     1.0000 0.27813  0.23832  0.11441  Biso   1.000  H
  H194     1.0000 0.28237  0.15409  0.12951  Biso   1.000  H
  H195     1.0000 0.92378  0.25821  0.56140  Biso   1.000  H
  H196     1.0000 0.93759  0.18407  0.59569  Biso   1.000  H
  C165     1.0000 0.82349  0.23998  0.64666  Biso   1.000  C
  H197     1.0000 0.91108  0.23768  0.60679  Biso   1.000  H
  H198     1.0000 0.82233  0.19672  0.62499  Biso   1.000  H
  C166     1.0000 0.80327  0.29021  0.57009  Biso   1.000  C
  H199     1.0000 0.53471  0.11621  0.27798  Biso   1.000  H
  H200     1.0000 0.55537  0.03841  0.30049  Biso   1.000  H
  C167     1.0000 0.50198  0.00332  0.15511  Biso   1.000  C
  C168     1.0000 0.77032  0.29512  0.62242  Biso   1.000  C
  H201     1.0000 0.20803  0.13560  0.96919  Biso   1.000  H
  H202     1.0000 0.27957  0.07561  0.96058  Biso   1.000  H
  H203     1.0000 0.29983  0.15678  0.93928  Biso   1.000  H
  H204     1.0000 0.78637  0.19049  0.64349  Biso   1.000  H
  H205     1.0000 0.85212  0.26992  0.71501  Biso   1.000  H
  H206     1.0000 0.80791  0.33579  0.60792  Biso   1.000  H
  H207     1.0000 0.81041  0.33981  0.63382  Biso   1.000  H
  H208     1.0000 0.82593  0.30621  0.51881  Biso   1.000  H
  H209     1.0000 0.52728  0.95068  0.12672  Biso   1.000  H
  C169     1.0000 0.40939  0.98311  0.16818  Biso   1.000  C
  H210     1.0000 0.50343  0.02874  0.10663  Biso   1.000  H
  H211     1.0000 0.74139  0.32649  0.68080  Biso   1.000  H
  H212     1.0000 0.40710  0.95502  0.21379  Biso   1.000  H
  C170     1.0000 0.35551  0.92541  0.06653  Biso   1.000  C
  H213     1.0000 0.38402  0.03538  0.19839  Biso   1.000  H
  H214     1.0000 0.29540  0.91710  0.07703  Biso   1.000  H
  H215     1.0000 0.37722  0.87151  0.03950  Biso   1.000  H
  H216     1.0000 0.36052  0.95159  0.01994  Biso   1.000  H
  Ne1      1.0000 0.00000  0.50000  0.50000  Biso   1.000  Ne
  He1      1.0000 0.22142  0.71934  0.79525  Biso   1.000  He
  He2      1.0000 0.82212  0.44490  0.72515  Biso   1.000  He
  He3      1.0000 0.17613  0.55341  0.27745  Biso   1.000  He
  He4      1.0000 0.73820  0.23492  0.14389  Biso   1.000  He
  Ar1      1.0000 0.00000  0.49999  0.50000  Biso   1.000  Ar
