data_image0
_cell_length_a       16.864
_cell_length_b       18.652
_cell_length_c       16.034
_cell_angle_alpha    104.59
_cell_angle_beta     117.93
_cell_angle_gamma    101.76

_symmetry_space_group_name_H-M    "P 1"
_symmetry_int_tables_number       1

loop_
  _symmetry_equiv_pos_as_xyz
  'x, y, z'

loop_
  _atom_site_label
  _atom_site_occupancy
  _atom_site_fract_x
  _atom_site_fract_y
  _atom_site_fract_z
  _atom_site_thermal_displace_type
  _atom_site_B_iso_or_equiv
  _atom_site_type_symbol
  C1       1.0000 0.76303  0.84872  0.17474  Biso   1.000  C
  O1       1.0000 0.70750  0.76324  0.10637  Biso   1.000  O
  O2       1.0000 0.70749  0.76318  0.10637  Biso   1.000  O
  H1       1.0000 0.77772  0.85812  0.24357  Biso   1.000  H
  C2       1.0000 0.69937  0.88987  0.12733  Biso   1.000  C
  C3       1.0000 0.69936  0.88981  0.12733  Biso   1.000  C
  H2       1.0000 0.82314  0.86720  0.17851  Biso   1.000  H
  H3       1.0000 0.73653  0.87402  0.11161  Biso   1.000  H
  H4       1.0000 0.76092  0.87121  0.21721  Biso   1.000  H
  C4       1.0000 0.72228  0.72185  0.16757  Biso   1.000  C
  C5       1.0000 0.72233  0.72179  0.16757  Biso   1.000  C
  C6       1.0000 0.71305  0.84573  0.14352  Biso   1.000  C
  O3       1.0000 0.61795  0.85640  0.12363  Biso   1.000  O
  H5       1.0000 0.72926  0.94694  0.16903  Biso   1.000  H
  H6       1.0000 0.68503  0.88104  0.05873  Biso   1.000  H
  C7       1.0000 0.65432  0.69392  0.18954  Biso   1.000  C
  C8       1.0000 0.80529  0.70312  0.20379  Biso   1.000  C
  C9       1.0000 0.60868  0.85992  0.20557  Biso   1.000  C
  C10      1.0000 0.67520  0.65243  0.25289  Biso   1.000  C
  C11      1.0000 0.56205  0.71142  0.14552  Biso   1.000  C
  C12      1.0000 0.82154  0.66273  0.26592  Biso   1.000  C
  O4       1.0000 0.87212  0.73204  0.18183  Biso   1.000  O
  C13      1.0000 0.57883  0.79203  0.21882  Biso   1.000  C
  C14      1.0000 0.62762  0.93474  0.27347  Biso   1.000  C
  C15      1.0000 0.75902  0.63483  0.29290  Biso   1.000  C
  H7       1.0000 0.63100  0.63521  0.26970  Biso   1.000  H
  C16      1.0000 0.47161  0.64321  0.11292  Biso   1.000  C
  H8       1.0000 0.55028  0.71801  0.08247  Biso   1.000  H
  H9       1.0000 0.55034  0.71801  0.08247  Biso   1.000  H
  O5       1.0000 0.90282  0.64025  0.29482  Biso   1.000  O
  C17      1.0000 0.85276  0.67853  0.08741  Biso   1.000  C
  C18      1.0000 0.56509  0.79886  0.29891  Biso   1.000  C
  C19      1.0000 0.56514  0.79880  0.29891  Biso   1.000  C
  C20      1.0000 0.61108  0.93781  0.35047  Biso   1.000  C
  O6       1.0000 0.65966  0.00265  0.26137  Biso   1.000  O
  C21      1.0000 0.77997  0.59256  0.36427  Biso   1.000  C
  C22      1.0000 0.78001  0.59250  0.36427  Biso   1.000  C
  H10      1.0000 0.46912  0.59361  0.07199  Biso   1.000  H
  H11      1.0000 0.47758  0.63845  0.17427  Biso   1.000  H
  C23      1.0000 0.37748  0.65322  0.05187  Biso   1.000  C
  H12      1.0000 0.47763  0.63840  0.17427  Biso   1.000  H
  C24      1.0000 0.37754  0.65322  0.05187  Biso   1.000  C
  C25      1.0000 0.99669  0.68091  0.35240  Biso   1.000  C
  H13      1.0000 0.78651  0.66503  0.03230  Biso   1.000  H
  H14      1.0000 0.86012  0.62951  0.09373  Biso   1.000  H
  C26      1.0000 0.92139  0.71662  0.06166  Biso   1.000  C
  C27      1.0000 0.58024  0.87105  0.36682  Biso   1.000  C
  H15      1.0000 0.54482  0.75251  0.30746  Biso   1.000  H
  O7       1.0000 0.62097  0.01215  0.41121  Biso   1.000  O
  C28      1.0000 0.58235  0.02149  0.18822  Biso   1.000  C
  C29      1.0000 0.69282  0.52070  0.33051  Biso   1.000  C
  H16      1.0000 0.82658  0.57022  0.36026  Biso   1.000  H
  C30      1.0000 0.83333  0.65217  0.47442  Biso   1.000  C
  C31      1.0000 0.83331  0.65212  0.47442  Biso   1.000  C
  H17      1.0000 0.37336  0.66104  0.99260  Biso   1.000  H
  C32      1.0000 0.28879  0.58644  0.01488  Biso   1.000  C
  H18      1.0000 0.37901  0.70148  0.09427  Biso   1.000  H
  C33      1.0000 0.28883  0.58638  0.01488  Biso   1.000  C
  C34      1.0000 0.99267  0.72436  0.42979  Biso   1.000  C
  C35      1.0000 0.99272  0.72430  0.42979  Biso   1.000  C
  C36      1.0000 0.99990  0.71264  0.43210  Biso   1.000  C
  H19      1.0000 0.01910  0.71282  0.32280  Biso   1.000  H
  H20      1.0000 0.03423  0.64793  0.37098  Biso   1.000  H
  H21      1.0000 0.06421  0.72215  0.44520  Biso   1.000  H
  C37      1.0000 0.91309  0.67256  0.97279  Biso   1.000  C
  C38      1.0000 0.99002  0.79271  0.12132  Biso   1.000  C
  C39      1.0000 0.56591  0.87744  0.45430  Biso   1.000  C
  C40      1.0000 0.70165  0.07688  0.47573  Biso   1.000  C
  C41      1.0000 0.72315  0.04698  0.52089  Biso   1.000  C
  H22      1.0000 0.54225  0.97621  0.12201  Biso   1.000  H
  H23      1.0000 0.54163  0.03175  0.21328  Biso   1.000  H
  C42      1.0000 0.62468  0.09186  0.17628  Biso   1.000  C
  C43      1.0000 0.65400  0.45465  0.22553  Biso   1.000  C
  H24      1.0000 0.71121  0.49867  0.38231  Biso   1.000  H
  H25      1.0000 0.64153  0.53874  0.32619  Biso   1.000  H
  H26      1.0000 0.71120  0.49862  0.38231  Biso   1.000  H
  C44      1.0000 0.93230  0.69202  0.52868  Biso   1.000  C
  C45      1.0000 0.78511  0.67272  0.52313  Biso   1.000  C
  H27      1.0000 0.29312  0.57760  0.07369  Biso   1.000  H
  H28      1.0000 0.28574  0.53832  0.97048  Biso   1.000  H
  C46      1.0000 0.19399  0.59972  0.95522  Biso   1.000  C
  C47      1.0000 0.19401  0.59978  0.95522  Biso   1.000  C
  O8       1.0000 0.98430  0.67311  0.48659  Biso   1.000  O
  H29      1.0000 0.93698  0.73966  0.40296  Biso   1.000  H
  H30      1.0000 0.93696  0.73960  0.40296  Biso   1.000  H
  H31      1.0000 0.99168  0.76321  0.44798  Biso   1.000  H
  H32      1.0000 0.05069  0.77256  0.47588  Biso   1.000  H
  H33      1.0000 0.05068  0.77250  0.47588  Biso   1.000  H
  H34      1.0000 0.86823  0.62010  0.93310  Biso   1.000  H
  C48      1.0000 0.96956  0.70485  0.94250  Biso   1.000  C
  H35      1.0000 0.86830  0.62016  0.93310  Biso   1.000  H
  H36      1.0000 0.99746  0.82212  0.18252  Biso   1.000  H
  C49      1.0000 0.04865  0.82685  0.09242  Biso   1.000  C
  C50      1.0000 0.04863  0.82680  0.09242  Biso   1.000  C
  C51      1.0000 0.66078  0.88762  0.54779  Biso   1.000  C
  H37      1.0000 0.55478  0.92701  0.47226  Biso   1.000  H
  C52      1.0000 0.47853  0.81003  0.42670  Biso   1.000  C
  C53      1.0000 0.77522  0.05417  0.55697  Biso   1.000  C
  H38      1.0000 0.68855  0.11979  0.50902  Biso   1.000  H
  H39      1.0000 0.72753  0.09480  0.43850  Biso   1.000  H
  H40      1.0000 0.72752  0.09475  0.43850  Biso   1.000  H
  H41      1.0000 0.75125  0.10447  0.54371  Biso   1.000  H
  O9       1.0000 0.71800  0.03078  0.60036  Biso   1.000  O
  H42      1.0000 0.76675  0.02487  0.51057  Biso   1.000  H
  C54      1.0000 0.55997  0.11906  0.11400  Biso   1.000  C
  C55      1.0000 0.72336  0.13250  0.22430  Biso   1.000  C
  C56      1.0000 0.72335  0.13245  0.22430  Biso   1.000  C
  C57      1.0000 0.57241  0.38314  0.19061  Biso   1.000  C
  C58      1.0000 0.57240  0.38309  0.19061  Biso   1.000  C
  H43      1.0000 0.70661  0.43872  0.22962  Biso   1.000  H
  H44      1.0000 0.63430  0.47689  0.17389  Biso   1.000  H
  C59      1.0000 0.98229  0.74897  0.62850  Biso   1.000  C
  C60      1.0000 0.98228  0.74891  0.62850  Biso   1.000  C
  H45      1.0000 0.71829  0.64663  0.48667  Biso   1.000  H
  C61      1.0000 0.83259  0.72997  0.62271  Biso   1.000  C
  C62      1.0000 0.83257  0.72992  0.62271  Biso   1.000  C
  H46      1.0000 0.19895  0.64913  0.99938  Biso   1.000  H
  H47      1.0000 0.18997  0.60765  0.89610  Biso   1.000  H
  C63      1.0000 0.10223  0.53673  0.91807  Biso   1.000  C
  H48      1.0000 0.96186  0.67525  0.88107  Biso   1.000  H
  C64      1.0000 0.03862  0.78162  0.00331  Biso   1.000  C
  C65      1.0000 0.12632  0.90769  0.15801  Biso   1.000  C
  C66      1.0000 0.67949  0.82186  0.56891  Biso   1.000  C
  C67      1.0000 0.73280  0.96217  0.61639  Biso   1.000  C
  C68      1.0000 0.73279  0.96212  0.61639  Biso   1.000  C
  H49      1.0000 0.47771  0.81665  0.48821  Biso   1.000  H
  C69      1.0000 0.38369  0.80462  0.34431  Biso   1.000  C
  H50      1.0000 0.48620  0.75988  0.40512  Biso   1.000  H
  H51      1.0000 0.48625  0.75982  0.40512  Biso   1.000  H
  H52      1.0000 0.78793  0.01002  0.52583  Biso   1.000  H
  H53      1.0000 0.83574  0.09933  0.60822  Biso   1.000  H
  H54      1.0000 0.78798  0.00997  0.52583  Biso   1.000  H
  H55      1.0000 0.83573  0.09927  0.60822  Biso   1.000  H
  H56      1.0000 0.49375  0.09310  0.08270  Biso   1.000  H
  C70      1.0000 0.59399  0.18530  0.09827  Biso   1.000  C
  H57      1.0000 0.49379  0.09304  0.08270  Biso   1.000  H
  C71      1.0000 0.59397  0.18524  0.09827  Biso   1.000  C
  C72      1.0000 0.75680  0.19971  0.21012  Biso   1.000  C
  C73      1.0000 0.75679  0.19966  0.21012  Biso   1.000  C
  H58      1.0000 0.76733  0.11445  0.26638  Biso   1.000  H
  C74      1.0000 0.48028  0.37121  0.17620  Biso   1.000  C
  H59      1.0000 0.60067  0.35761  0.23678  Biso   1.000  H
  H60      1.0000 0.55749  0.34902  0.12433  Biso   1.000  H
  H61      1.0000 0.55755  0.34902  0.12433  Biso   1.000  H
  C75      1.0000 0.93407  0.76884  0.67767  Biso   1.000  C
  O10      1.0000 0.08110  0.79063  0.68029  Biso   1.000  O
  C76      1.0000 0.77987  0.75642  0.67351  Biso   1.000  C
  H62      1.0000 0.04967  0.55405  0.88700  Biso   1.000  H
  H63      1.0000 0.10520  0.52654  0.97503  Biso   1.000  H
  H64      1.0000 0.09205  0.48875  0.86797  Biso   1.000  H
  H65      1.0000 0.07868  0.80293  0.98381  Biso   1.000  H
  H66      1.0000 0.07869  0.80299  0.98381  Biso   1.000  H
  H67      1.0000 0.12653  0.93590  0.11477  Biso   1.000  H
  O11      1.0000 0.11293  0.95264  0.23301  Biso   1.000  O
  H68      1.0000 0.18863  0.90271  0.19246  Biso   1.000  H
  C77      1.0000 0.76239  0.83116  0.65501  Biso   1.000  C
  H69      1.0000 0.63394  0.77054  0.52282  Biso   1.000  H
  C78      1.0000 0.81480  0.97243  0.70172  Biso   1.000  C
  H70      1.0000 0.38312  0.79754  0.28203  Biso   1.000  H
  H71      1.0000 0.37410  0.85383  0.36550  Biso   1.000  H
  C79      1.0000 0.30009  0.73289  0.32219  Biso   1.000  C
  H72      1.0000 0.55028  0.20246  0.05442  Biso   1.000  H
  C80      1.0000 0.69147  0.22575  0.14691  Biso   1.000  C
  C81      1.0000 0.86147  0.24459  0.25852  Biso   1.000  C
  H73      1.0000 0.48412  0.38862  0.24072  Biso   1.000  H
  H74      1.0000 0.43471  0.31641  0.13250  Biso   1.000  H
  C82      1.0000 0.45738  0.43071  0.11916  Biso   1.000  C
  O12      1.0000 0.98736  0.82173  0.77749  Biso   1.000  O
  C83      1.0000 0.13849  0.75542  0.74149  Biso   1.000  C
  H75      1.0000 0.82550  0.77456  0.74789  Biso   1.000  H
  C84      1.0000 0.69103  0.69104  0.64453  Biso   1.000  C
  C85      1.0000 0.18516  0.02757  0.29829  Biso   1.000  C
  C86      1.0000 0.83125  0.90605  0.72207  Biso   1.000  C
  C87      1.0000 0.83131  0.90605  0.72207  Biso   1.000  C
  O13      1.0000 0.88704  0.04737  0.76700  Biso   1.000  O
  H76      1.0000 0.30089  0.74034  0.38477  Biso   1.000  H
  H77      1.0000 0.31026  0.68392  0.30176  Biso   1.000  H
  C88      1.0000 0.20650  0.72584  0.24156  Biso   1.000  C
  H78      1.0000 0.31032  0.68392  0.30176  Biso   1.000  H
  C89      1.0000 0.20649  0.72579  0.24156  Biso   1.000  C
  H79      1.0000 0.71369  0.27086  0.13720  Biso   1.000  H
  H80      1.0000 0.87384  0.24475  0.20526  Biso   1.000  H
  H81      1.0000 0.87925  0.29956  0.30138  Biso   1.000  H
  O14      1.0000 0.91886  0.20938  0.31972  Biso   1.000  O
  H82      1.0000 0.42402  0.45902  0.14098  Biso   1.000  H
  H83      1.0000 0.51701  0.46802  0.13697  Biso   1.000  H
  H84      1.0000 0.41702  0.40042  0.04586  Biso   1.000  H
  H85      1.0000 0.41701  0.40037  0.04586  Biso   1.000  H
  C90      1.0000 0.98619  0.91262  0.79236  Biso   1.000  C
  C91      1.0000 0.01637  0.89696  0.79028  Biso   1.000  C
  C92      1.0000 0.24317  0.80035  0.78990  Biso   1.000  C
  H86      1.0000 0.12608  0.75523  0.79468  Biso   1.000  H
  H87      1.0000 0.12067  0.70043  0.69856  Biso   1.000  H
  H88      1.0000 0.65477  0.71515  0.66688  Biso   1.000  H
  H89      1.0000 0.65022  0.66355  0.56999  Biso   1.000  H
  C93      1.0000 0.71210  0.63065  0.68993  Biso   1.000  C
  C94      1.0000 0.26717  0.03789  0.38362  Biso   1.000  C
  C95      1.0000 0.16862  0.09399  0.27787  Biso   1.000  C
  C96      1.0000 0.16861  0.09394  0.27787  Biso   1.000  C
  O15      1.0000 0.91019  0.91876  0.81526  Biso   1.000  O
  C97      1.0000 0.87364  0.09231  0.84200  Biso   1.000  C
  H90      1.0000 0.19192  0.77164  0.26499  Biso   1.000  H
  C98      1.0000 0.12624  0.64605  0.21343  Biso   1.000  C
  H91      1.0000 0.20732  0.72451  0.18121  Biso   1.000  H
  C99      1.0000 0.01768  0.25109  0.37152  Biso   1.000  C
  H92      1.0000 0.97902  0.90105  0.72500  Biso   1.000  H
  H93      1.0000 0.97050  0.92095  0.73001  Biso   1.000  H
  C100     1.0000 0.00519  0.94706  0.86566  Biso   1.000  C
  H94      1.0000 0.04909  0.95287  0.84878  Biso   1.000  H
  H95      1.0000 0.08387  0.91568  0.81256  Biso   1.000  H
  H96      1.0000 0.08386  0.91562  0.81256  Biso   1.000  H
  C101     1.0000 0.30849  0.77426  0.85310  Biso   1.000  C
  C102     1.0000 0.27661  0.86756  0.77571  Biso   1.000  C
  H97      1.0000 0.74457  0.65674  0.76400  Biso   1.000  H
  H98      1.0000 0.75641  0.61258  0.67621  Biso   1.000  H
  C103     1.0000 0.62325  0.55812  0.64908  Biso   1.000  C
  H99      1.0000 0.75640  0.61252  0.67621  Biso   1.000  H
  C104     1.0000 0.62330  0.55812  0.64908  Biso   1.000  C
  O16      1.0000 0.28192  0.96921  0.39957  Biso   1.000  O
  C105     1.0000 0.33918  0.11238  0.45222  Biso   1.000  C
  C106     1.0000 0.23758  0.16890  0.34500  Biso   1.000  C
  O17      1.0000 0.08975  0.08128  0.18468  Biso   1.000  O
  C107     1.0000 0.23757  0.16885  0.34500  Biso   1.000  C
  C108     1.0000 0.95133  0.17321  0.90760  Biso   1.000  C
  H100     1.0000 0.81130  0.09733  0.80747  Biso   1.000  H
  H101     1.0000 0.87339  0.06409  0.88517  Biso   1.000  H
  H102     1.0000 0.81129  0.09727  0.80747  Biso   1.000  H
  H103     1.0000 0.06721  0.63452  0.15023  Biso   1.000  H
  H104     1.0000 0.11502  0.65272  0.26769  Biso   1.000  H
  H105     1.0000 0.14805  0.60264  0.20503  Biso   1.000  H
  C109     1.0000 0.06763  0.30796  0.47126  Biso   1.000  C
  C110     1.0000 0.06586  0.23120  0.32226  Biso   1.000  C
  C111     1.0000 0.06585  0.23115  0.32226  Biso   1.000  C
  H106     1.0000 0.03466  0.93934  0.92949  Biso   1.000  H
  H107     1.0000 0.03141  0.00309  0.87992  Biso   1.000  H
  C112     1.0000 0.40595  0.81474  0.90166  Biso   1.000  C
  H108     1.0000 0.28628  0.72915  0.86281  Biso   1.000  H
  C113     1.0000 0.37525  0.90818  0.82366  Biso   1.000  C
  H109     1.0000 0.23260  0.88553  0.73355  Biso   1.000  H
  C114     1.0000 0.37530  0.90813  0.82366  Biso   1.000  C
  H110     1.0000 0.57347  0.57635  0.64938  Biso   1.000  H
  C115     1.0000 0.64128  0.50635  0.70912  Biso   1.000  C
  H111     1.0000 0.59871  0.52588  0.57809  Biso   1.000  H
  H112     1.0000 0.59870  0.52582  0.57809  Biso   1.000  H
  C116     1.0000 0.22470  0.94582  0.44297  Biso   1.000  C
  C117     1.0000 0.27683  0.95308  0.47912  Biso   1.000  C
  C118     1.0000 0.32048  0.17820  0.43110  Biso   1.000  C
  C119     1.0000 0.43407  0.12262  0.54571  Biso   1.000  C
  C120     1.0000 0.43405  0.12257  0.54571  Biso   1.000  C
  C121     1.0000 0.22003  0.24359  0.32650  Biso   1.000  C
  C122     1.0000 0.22009  0.24359  0.32650  Biso   1.000  C
  C123     1.0000 0.99474  0.05298  0.13427  Biso   1.000  C
  C124     1.0000 0.01373  0.08737  0.20757  Biso   1.000  C
  C125     1.0000 0.96136  0.21844  0.99670  Biso   1.000  C
  C126     1.0000 0.96134  0.21838  0.99670  Biso   1.000  C
  C127     1.0000 0.00995  0.20730  0.87869  Biso   1.000  C
  O18      1.0000 0.01566  0.32690  0.51342  Biso   1.000  O
  C128     1.0000 0.16665  0.34789  0.52560  Biso   1.000  C
  C129     1.0000 0.16733  0.27009  0.37730  Biso   1.000  C
  C130     1.0000 0.16739  0.27009  0.37730  Biso   1.000  C
  O19      1.0000 0.01260  0.17828  0.22252  Biso   1.000  O
  C131     1.0000 0.44000  0.88095  0.88601  Biso   1.000  C
  H113     1.0000 0.44970  0.79760  0.94560  Biso   1.000  H
  H114     1.0000 0.44968  0.79754  0.94560  Biso   1.000  H
  C132     1.0000 0.41761  0.97852  0.81179  Biso   1.000  C
  H115     1.0000 0.65957  0.53693  0.77826  Biso   1.000  H
  H116     1.0000 0.69528  0.49228  0.71459  Biso   1.000  H
  C133     1.0000 0.55298  0.42917  0.66017  Biso   1.000  C
  H117     1.0000 0.69526  0.49223  0.71459  Biso   1.000  H
  C134     1.0000 0.55297  0.42911  0.66017  Biso   1.000  C
  C135     1.0000 0.29831  0.92312  0.52429  Biso   1.000  C
  H118     1.0000 0.21198  0.99004  0.47418  Biso   1.000  H
  H119     1.0000 0.16423  0.90074  0.39179  Biso   1.000  H
  H120     1.0000 0.23318  0.97517  0.48937  Biso   1.000  H
  H121     1.0000 0.24871  0.89554  0.45630  Biso   1.000  H
  O20      1.0000 0.37899  0.98786  0.58880  Biso   1.000  O
  H122     1.0000 0.36603  0.22947  0.47719  Biso   1.000  H
  C136     1.0000 0.41973  0.12901  0.63320  Biso   1.000  C
  H123     1.0000 0.44514  0.07297  0.52768  Biso   1.000  H
  C137     1.0000 0.52144  0.19003  0.57331  Biso   1.000  C
  C138     1.0000 0.52143  0.18998  0.57331  Biso   1.000  C
  C139     1.0000 0.30893  0.30897  0.35548  Biso   1.000  C
  H124     1.0000 0.17446  0.22545  0.25212  Biso   1.000  H
  H125     1.0000 0.96855  0.99692  0.12009  Biso   1.000  H
  C140     1.0000 0.98355  0.10310  0.20973  Biso   1.000  C
  H126     1.0000 0.96530  0.06066  0.07053  Biso   1.000  H
  C141     1.0000 0.98360  0.10305  0.20973  Biso   1.000  C
  H127     1.0000 0.95088  0.04720  0.15123  Biso   1.000  H
  H128     1.0000 0.02095  0.09902  0.27501  Biso   1.000  H
  H129     1.0000 0.02094  0.09896  0.27501  Biso   1.000  H
  H130     1.0000 0.02947  0.07911  0.27000  Biso   1.000  H
  H131     1.0000 0.92129  0.19708  0.01620  Biso   1.000  H
  H132     1.0000 0.92130  0.19713  0.01620  Biso   1.000  H
  C142     1.0000 0.03040  0.29516  0.05751  Biso   1.000  C
  C143     1.0000 0.03041  0.29521  0.05751  Biso   1.000  C
  C144     1.0000 0.07854  0.28342  0.93827  Biso   1.000  C
  H133     1.0000 0.00252  0.17794  0.81749  Biso   1.000  H
  H134     1.0000 0.00251  0.17788  0.81749  Biso   1.000  H
  C145     1.0000 0.00724  0.27571  0.57022  Biso   1.000  C
  C146     1.0000 0.00008  0.28742  0.56791  Biso   1.000  C
  C147     1.0000 0.21485  0.32729  0.47688  Biso   1.000  C
  C148     1.0000 0.21991  0.40748  0.63566  Biso   1.000  C
  H135     1.0000 0.50623  0.90696  0.91731  Biso   1.000  H
  O21      1.0000 0.34026  0.99733  0.73856  Biso   1.000  O
  H136     1.0000 0.45830  0.96823  0.78666  Biso   1.000  H
  H137     1.0000 0.45772  0.02379  0.87800  Biso   1.000  H
  H138     1.0000 0.56457  0.40366  0.70750  Biso   1.000  H
  H139     1.0000 0.49672  0.44206  0.64460  Biso   1.000  H
  H140     1.0000 0.54249  0.39361  0.59790  Biso   1.000  H
  H141     1.0000 0.31142  0.88028  0.49099  Biso   1.000  H
  H142     1.0000 0.27244  0.90526  0.56151  Biso   1.000  H
  H143     1.0000 0.31141  0.88022  0.49099  Biso   1.000  H
  C149     1.0000 0.38884  0.06217  0.64946  Biso   1.000  C
  C150     1.0000 0.43482  0.20121  0.70110  Biso   1.000  C
  H144     1.0000 0.51372  0.24018  0.59489  Biso   1.000  H
  H145     1.0000 0.52226  0.18341  0.51180  Biso   1.000  H
  C151     1.0000 0.61627  0.19539  0.65570  Biso   1.000  C
  H146     1.0000 0.52225  0.18336  0.51180  Biso   1.000  H
  H147     1.0000 0.34520  0.28492  0.33313  Biso   1.000  H
  H148     1.0000 0.34976  0.33651  0.43002  Biso   1.000  H
  C152     1.0000 0.28787  0.36941  0.31009  Biso   1.000  C
  H149     1.0000 0.34519  0.28486  0.33313  Biso   1.000  H
  H150     1.0000 0.34974  0.33646  0.43002  Biso   1.000  H
  C153     1.0000 0.28786  0.36935  0.31009  Biso   1.000  C
  H151     1.0000 0.91606  0.08436  0.18738  Biso   1.000  H
  C154     1.0000 0.08688  0.32751  0.02722  Biso   1.000  C
  H152     1.0000 0.03808  0.32479  0.11887  Biso   1.000  H
  C155     1.0000 0.14722  0.32153  0.91261  Biso   1.000  C
  C156     1.0000 0.14721  0.32148  0.91261  Biso   1.000  C
  C157     1.0000 0.00328  0.31909  0.64761  Biso   1.000  C
  H153     1.0000 0.94928  0.22750  0.52413  Biso   1.000  H
  H154     1.0000 0.93576  0.27791  0.55481  Biso   1.000  H
  H155     1.0000 0.06296  0.26038  0.59697  Biso   1.000  H
  H156     1.0000 0.00824  0.23677  0.55196  Biso   1.000  H
  H157     1.0000 0.28165  0.35341  0.51326  Biso   1.000  H
  H158     1.0000 0.28164  0.35336  0.51326  Biso   1.000  H
  C158     1.0000 0.24096  0.36523  0.70712  Biso   1.000  C
  C159     1.0000 0.24095  0.36518  0.70712  Biso   1.000  C
  C160     1.0000 0.30714  0.47930  0.66950  Biso   1.000  C
  H159     1.0000 0.17335  0.42976  0.63967  Biso   1.000  H
  C161     1.0000 0.37231  0.06530  0.72646  Biso   1.000  C
  C162     1.0000 0.42113  0.20798  0.78119  Biso   1.000  C
  H160     1.0000 0.45510  0.24747  0.69247  Biso   1.000  H
  H161     1.0000 0.62587  0.14623  0.63451  Biso   1.000  H
  C163     1.0000 0.69987  0.26712  0.67783  Biso   1.000  C
  H162     1.0000 0.61684  0.20247  0.71798  Biso   1.000  H
  H163     1.0000 0.62586  0.14618  0.63451  Biso   1.000  H
  H164     1.0000 0.25539  0.34327  0.23601  Biso   1.000  H
  H165     1.0000 0.24356  0.38748  0.32381  Biso   1.000  H
  C164     1.0000 0.37668  0.44186  0.35086  Biso   1.000  C
  H166     1.0000 0.13167  0.37991  0.06692  Biso   1.000  H
  O22      1.0000 0.12785  0.26802  0.81818  Biso   1.000  O
  H167     1.0000 0.21347  0.33504  0.96772  Biso   1.000  H
  H168     1.0000 0.13984  0.37049  0.90629  Biso   1.000  H
  O23      1.0000 0.12784  0.26797  0.81818  Biso   1.000  O
  O24      1.0000 0.09716  0.35981  0.70519  Biso   1.000  O
  H169     1.0000 0.98086  0.28719  0.67721  Biso   1.000  H
  H170     1.0000 0.96571  0.35211  0.62896  Biso   1.000  H
  H171     1.0000 0.96575  0.35205  0.62896  Biso   1.000  H
  C165     1.0000 0.32478  0.34763  0.74712  Biso   1.000  C
  C166     1.0000 0.32477  0.34758  0.74712  Biso   1.000  C
  C167     1.0000 0.17843  0.33733  0.73409  Biso   1.000  C
  C168     1.0000 0.17842  0.33727  0.73409  Biso   1.000  C
  H172     1.0000 0.35844  0.46132  0.67382  Biso   1.000  H
  H173     1.0000 0.28876  0.50139  0.61770  Biso   1.000  H
  C169     1.0000 0.34597  0.54542  0.77448  Biso   1.000  C
  C170     1.0000 0.39119  0.14012  0.79437  Biso   1.000  C
  C171     1.0000 0.39124  0.14007  0.79437  Biso   1.000  C
  C172     1.0000 0.43793  0.28864  0.85449  Biso   1.000  C
  C173     1.0000 0.43791  0.28859  0.85449  Biso   1.000  C
  H174     1.0000 0.68962  0.31612  0.69817  Biso   1.000  H
  H175     1.0000 0.69905  0.25970  0.61516  Biso   1.000  H
  C174     1.0000 0.79343  0.27419  0.75837  Biso   1.000  C
  H176     1.0000 0.68960  0.31606  0.69817  Biso   1.000  H
  H177     1.0000 0.42650  0.42372  0.35063  Biso   1.000  H
  H178     1.0000 0.40126  0.47419  0.42193  Biso   1.000  H
  H179     1.0000 0.42649  0.42366  0.35063  Biso   1.000  H
  C175     1.0000 0.35868  0.49366  0.29089  Biso   1.000  C
  C176     1.0000 0.19467  0.29688  0.79622  Biso   1.000  C
  C177     1.0000 0.34565  0.30609  0.81048  Biso   1.000  C
  H180     1.0000 0.36896  0.36479  0.73032  Biso   1.000  H
  H181     1.0000 0.36566  0.52312  0.82612  Biso   1.000  H
  H182     1.0000 0.29336  0.56134  0.77040  Biso   1.000  H
  C178     1.0000 0.42757  0.61692  0.80940  Biso   1.000  C
  H183     1.0000 0.29335  0.56128  0.77040  Biso   1.000  H
  O25      1.0000 0.38201  0.14360  0.87638  Biso   1.000  O
  C179     1.0000 0.52835  0.35679  0.88709  Biso   1.000  C
  H184     1.0000 0.44958  0.28197  0.91746  Biso   1.000  H
  H185     1.0000 0.79265  0.27550  0.81880  Biso   1.000  H
  H186     1.0000 0.80805  0.22842  0.73502  Biso   1.000  H
  C180     1.0000 0.87374  0.35401  0.78658  Biso   1.000  C
  H187     1.0000 0.34035  0.46306  0.22168  Biso   1.000  H
  H188     1.0000 0.30470  0.50778  0.28542  Biso   1.000  H
  C181     1.0000 0.44695  0.57087  0.33976  Biso   1.000  C
  C182     1.0000 0.27765  0.27819  0.83237  Biso   1.000  C
  H189     1.0000 0.44242  0.65104  0.87569  Biso   1.000  H
  H190     1.0000 0.39929  0.64240  0.76323  Biso   1.000  H
  C183     1.0000 0.51968  0.62880  0.82381  Biso   1.000  C
  H191     1.0000 0.44247  0.65099  0.87569  Biso   1.000  H
  C184     1.0000 0.30061  0.11020  0.87268  Biso   1.000  C
  C185     1.0000 0.28692  0.15433  0.85649  Biso   1.000  C
  H192     1.0000 0.52229  0.36159  0.82566  Biso   1.000  H
  H193     1.0000 0.53084  0.40640  0.92802  Biso   1.000  H
  C186     1.0000 0.62238  0.34676  0.94806  Biso   1.000  C
  H194     1.0000 0.93276  0.36549  0.84979  Biso   1.000  H
  H195     1.0000 0.88494  0.34729  0.73232  Biso   1.000  H
  H196     1.0000 0.85192  0.39743  0.79498  Biso   1.000  H
  H197     1.0000 0.85191  0.39737  0.79498  Biso   1.000  H
  H198     1.0000 0.45747  0.60640  0.40212  Biso   1.000  H
  H199     1.0000 0.50326  0.55800  0.35541  Biso   1.000  H
  H200     1.0000 0.43539  0.59635  0.29251  Biso   1.000  H
  H201     1.0000 0.50325  0.55795  0.35541  Biso   1.000  H
  O26      1.0000 0.29243  0.23680  0.89357  Biso   1.000  O
  H202     1.0000 0.51586  0.61144  0.75930  Biso   1.000  H
  H203     1.0000 0.56527  0.68365  0.86751  Biso   1.000  H
  C187     1.0000 0.54255  0.56933  0.88077  Biso   1.000  C
  H204     1.0000 0.51584  0.61139  0.75930  Biso   1.000  H
  H205     1.0000 0.56525  0.68360  0.86751  Biso   1.000  H
  C188     1.0000 0.54254  0.56928  0.88077  Biso   1.000  C
  C189     1.0000 0.23693  0.15129  0.82528  Biso   1.000  C
  H206     1.0000 0.31494  0.11903  0.94128  Biso   1.000  H
  H207     1.0000 0.27070  0.05307  0.83098  Biso   1.000  H
  H208     1.0000 0.31493  0.11897  0.94128  Biso   1.000  H
  H209     1.0000 0.26345  0.12605  0.88840  Biso   1.000  H
  H210     1.0000 0.23904  0.12880  0.78281  Biso   1.000  H
  H211     1.0000 0.62091  0.29851  0.90567  Biso   1.000  H
  C190     1.0000 0.71109  0.41360  0.98506  Biso   1.000  C
  H212     1.0000 0.62661  0.33902  0.00741  Biso   1.000  H
  H213     1.0000 0.57591  0.54101  0.85896  Biso   1.000  H
  H214     1.0000 0.58291  0.59962  0.95407  Biso   1.000  H
  H215     1.0000 0.48291  0.53197  0.86297  Biso   1.000  H
  H216     1.0000 0.17683  0.13280  0.82150  Biso   1.000  H
  H217     1.0000 0.22222  0.14192  0.75637  Biso   1.000  H
  H218     1.0000 0.22221  0.14187  0.75637  Biso   1.000  H
  H219     1.0000 0.70684  0.42241  0.92633  Biso   1.000  H
  H220     1.0000 0.71418  0.46166  0.02946  Biso   1.000  H
  C191     1.0000 0.80597  0.40029  0.04479  Biso   1.000  C
  H221     1.0000 0.71419  0.46172  0.02946  Biso   1.000  H
  H222     1.0000 0.80999  0.39236  0.10391  Biso   1.000  H
  H223     1.0000 0.80099  0.35091  0.00055  Biso   1.000  H
  H224     1.0000 0.81000  0.39242  0.10391  Biso   1.000  H
  C192     1.0000 0.89770  0.46331  0.08187  Biso   1.000  C
  H225     1.0000 0.95029  0.44596  0.11301  Biso   1.000  H
  H226     1.0000 0.89476  0.47347  0.02499  Biso   1.000  H
  H227     1.0000 0.90788  0.51129  0.13197  Biso   1.000  H
  H228     1.0000 0.95031  0.44602  0.11301  Biso   1.000  H
  H229     1.0000 0.89477  0.47352  0.02499  Biso   1.000  H
  Ne1      1.0000 0.99122  0.99953  0.49510  Biso   1.000  Ne
  He1      1.0000 0.12571  0.11920  0.91861  Biso   1.000  He
  He2      1.0000 0.89830  0.17268  0.57943  Biso   1.000  He
  He3      1.0000 0.33646  0.27254  0.59428  Biso   1.000  He
  He4      1.0000 0.16835  0.86965  0.58596  Biso   1.000  He
  He5      1.0000 0.66907  0.73170  0.40765  Biso   1.000  He
  He6      1.0000 0.86500  0.96692  0.16417  Biso   1.000  He
  Ar1      1.0000 0.99644  0.00290  0.50109  Biso   1.000  Ar
