data_image0
_cell_length_a       14.42
_cell_length_b       31.36
_cell_length_c       12.645
_cell_angle_alpha    90
_cell_angle_beta     91.48
_cell_angle_gamma    90

_symmetry_space_group_name_H-M    "P 1"
_symmetry_int_tables_number       1

loop_
  _symmetry_equiv_pos_as_xyz
  'x, y, z'

loop_
  _atom_site_label
  _atom_site_occupancy
  _atom_site_fract_x
  _atom_site_fract_y
  _atom_site_fract_z
  _atom_site_thermal_displace_type
  _atom_site_B_iso_or_equiv
  _atom_site_type_symbol
  C1       1.0000 0.56118  0.44369  0.50899  Biso   1.000  C
  C2       1.0000 0.54830  0.44209  0.39974  Biso   1.000  C
  H1       1.0000 0.56677  0.46961  0.54427  Biso   1.000  H
  C3       1.0000 0.56553  0.40548  0.56318  Biso   1.000  C
  C4       1.0000 0.53783  0.40482  0.34428  Biso   1.000  C
  H2       1.0000 0.54669  0.46760  0.36232  Biso   1.000  H
  C5       1.0000 0.55401  0.36798  0.51397  Biso   1.000  C
  O1       1.0000 0.58431  0.40281  0.67266  Biso   1.000  O
  C6       1.0000 0.53179  0.40418  0.22190  Biso   1.000  C
  C7       1.0000 0.53970  0.36690  0.40543  Biso   1.000  C
  H3       1.0000 0.55558  0.34279  0.55273  Biso   1.000  H
  C8       1.0000 0.56129  0.43900  0.73730  Biso   1.000  C
  C9       1.0000 0.51562  0.35861  0.18124  Biso   1.000  C
  C10      1.0000 0.62628  0.42191  0.18377  Biso   1.000  C
  C11      1.0000 0.45377  0.43335  0.17887  Biso   1.000  C
  H4       1.0000 0.53117  0.34078  0.37181  Biso   1.000  H
  H5       1.0000 0.59019  0.43559  0.80691  Biso   1.000  H
  H6       1.0000 0.58631  0.46460  0.70589  Biso   1.000  H
  C12      1.0000 0.46127  0.44420  0.74853  Biso   1.000  C
  C13      1.0000 0.58772  0.33151  0.15608  Biso   1.000  C
  C14      1.0000 0.42733  0.34091  0.17784  Biso   1.000  C
  H7       1.0000 0.67620  0.40619  0.21692  Biso   1.000  H
  H8       1.0000 0.62908  0.41910  0.10838  Biso   1.000  H
  H9       1.0000 0.63157  0.45150  0.20284  Biso   1.000  H
  C15      1.0000 0.45497  0.44799  0.07547  Biso   1.000  C
  C16      1.0000 0.37721  0.44452  0.23701  Biso   1.000  C
  C17      1.0000 0.38023  0.44719  0.75929  Biso   1.000  C
  C18      1.0000 0.57259  0.28999  0.12468  Biso   1.000  C
  H10      1.0000 0.64823  0.34171  0.16059  Biso   1.000  H
  C19      1.0000 0.41031  0.29971  0.14604  Biso   1.000  C
  H11      1.0000 0.37757  0.35768  0.19777  Biso   1.000  H
  H12      1.0000 0.50380  0.44021  0.03291  Biso   1.000  H
  C20      1.0000 0.38510  0.47411  0.03394  Biso   1.000  C
  C21      1.0000 0.30659  0.47009  0.19611  Biso   1.000  C
  H13      1.0000 0.37302  0.43441  0.30591  Biso   1.000  H
  C22      1.0000 0.28707  0.45169  0.77622  Biso   1.000  C
  C23      1.0000 0.48270  0.27411  0.11819  Biso   1.000  C
  H14      1.0000 0.62249  0.27270  0.10790  Biso   1.000  H
  H15      1.0000 0.34999  0.28919  0.14342  Biso   1.000  H
  C24      1.0000 0.31232  0.48549  0.09390  Biso   1.000  C
  H16      1.0000 0.38817  0.48380  0.96464  Biso   1.000  H
  H17      1.0000 0.25599  0.47691  0.23701  Biso   1.000  H
  C25      1.0000 0.20541  0.45641  0.78990  Biso   1.000  C
  O2       1.0000 0.47407  0.23297  0.07998  Biso   1.000  O
  O3       1.0000 0.24812  0.51266  0.04557  Biso   1.000  O
  C26      1.0000 0.11020  0.46470  0.80533  Biso   1.000  C
  C27      1.0000 0.38272  0.21610  0.06677  Biso   1.000  C
  C28      1.0000 0.16652  0.52299  0.10158  Biso   1.000  C
  O4       1.0000 0.05827  0.43087  0.85177  Biso   1.000  O
  H18      1.0000 0.10531  0.48970  0.85003  Biso   1.000  H
  H19      1.0000 0.08140  0.47172  0.73730  Biso   1.000  H
  C29      1.0000 0.34502  0.20070  0.16597  Biso   1.000  C
  H20      1.0000 0.34219  0.23801  0.03774  Biso   1.000  H
  H21      1.0000 0.38380  0.19279  0.01653  Biso   1.000  H
  H22      1.0000 0.18420  0.53281  0.17206  Biso   1.000  H
  H23      1.0000 0.13443  0.54621  0.06558  Biso   1.000  H
  C30      1.0000 0.10367  0.48670  0.10980  Biso   1.000  C
  C31      1.0000 0.03149  0.39739  0.78713  Biso   1.000  C
  C32      1.0000 0.31552  0.18591  0.24729  Biso   1.000  C
  C33      1.0000 0.05327  0.45721  0.11392  Biso   1.000  C
  C34      1.0000 0.07768  0.38479  0.69861  Biso   1.000  C
  C35      1.0000 0.95659  0.37459  0.81759  Biso   1.000  C
  C36      1.0000 0.28390  0.16821  0.33621  Biso   1.000  C
  C37      1.0000 0.99162  0.42379  0.11692  Biso   1.000  C
  C38      1.0000 0.04647  0.34981  0.64308  Biso   1.000  C
  H24      1.0000 0.12940  0.39981  0.67662  Biso   1.000  H
  C39      1.0000 0.92617  0.33970  0.76040  Biso   1.000  C
  H25      1.0000 0.92550  0.38268  0.87787  Biso   1.000  H
  C40      1.0000 0.25557  0.15150  0.41421  Biso   1.000  C
  C41      1.0000 0.93793  0.39410  0.11914  Biso   1.000  C
  C42      1.0000 0.96990  0.32659  0.67029  Biso   1.000  C
  H26      1.0000 0.07883  0.34129  0.58398  Biso   1.000  H
  H27      1.0000 0.87481  0.32471  0.78302  Biso   1.000  H
  C43      1.0000 0.21952  0.12899  0.50677  Biso   1.000  C
  C44      1.0000 0.87389  0.35931  0.11471  Biso   1.000  C
  C45      1.0000 0.93668  0.28849  0.60281  Biso   1.000  C
  H28      1.0000 0.26121  0.10580  0.52560  Biso   1.000  H
  H29      1.0000 0.15959  0.11680  0.48787  Biso   1.000  H
  O5       1.0000 0.20970  0.15615  0.59656  Biso   1.000  O
  O6       1.0000 0.81521  0.35784  0.20291  Biso   1.000  O
  H30      1.0000 0.90841  0.33281  0.11123  Biso   1.000  H
  H31      1.0000 0.83603  0.36161  0.05047  Biso   1.000  H
  C46      1.0000 0.01492  0.25469  0.59458  Biso   1.000  C
  C47      1.0000 0.85530  0.26451  0.65336  Biso   1.000  C
  C48      1.0000 0.90637  0.30641  0.49253  Biso   1.000  C
  C49      1.0000 0.14478  0.18801  0.59000  Biso   1.000  C
  C50      1.0000 0.85110  0.34129  0.29658  Biso   1.000  C
  C51      1.0000 0.01527  0.22589  0.51191  Biso   1.000  C
  C52      1.0000 0.08023  0.24901  0.67646  Biso   1.000  C
  H32      1.0000 0.83300  0.24270  0.60582  Biso   1.000  H
  H33      1.0000 0.87640  0.25159  0.71863  Biso   1.000  H
  H34      1.0000 0.80610  0.28422  0.66721  Biso   1.000  H
  C53      1.0000 0.96829  0.31291  0.41247  Biso   1.000  C
  C54      1.0000 0.81568  0.31901  0.47196  Biso   1.000  C
  C55      1.0000 0.08049  0.19321  0.50709  Biso   1.000  C
  C56      1.0000 0.14342  0.21661  0.67409  Biso   1.000  C
  C57      1.0000 0.94190  0.33010  0.31588  Biso   1.000  C
  C58      1.0000 0.78813  0.33581  0.37601  Biso   1.000  C
  H35      1.0000 0.97070  0.22841  0.45780  Biso   1.000  H
  H36      1.0000 0.08077  0.26760  0.73389  Biso   1.000  H
  H37      1.0000 0.03020  0.30539  0.42418  Biso   1.000  H
  H38      1.0000 0.77243  0.31601  0.52473  Biso   1.000  H
  H39      1.0000 0.08091  0.17500  0.44910  Biso   1.000  H
  H40      1.0000 0.18643  0.21371  0.72970  Biso   1.000  H
  H41      1.0000 0.98559  0.33399  0.26399  Biso   1.000  H
  H42      1.0000 0.72642  0.34359  0.36438  Biso   1.000  H
  C59      1.0000 0.43879  0.55631  0.49103  Biso   1.000  C
  C60      1.0000 0.43451  0.59452  0.43676  Biso   1.000  C
  C61      1.0000 0.45167  0.55791  0.60028  Biso   1.000  C
  H43      1.0000 0.43321  0.53039  0.45567  Biso   1.000  H
  O7       1.0000 0.41566  0.59719  0.32727  Biso   1.000  O
  C62      1.0000 0.44603  0.63202  0.48597  Biso   1.000  C
  C63      1.0000 0.46222  0.59518  0.65573  Biso   1.000  C
  H44      1.0000 0.45328  0.53240  0.63770  Biso   1.000  H
  C64      1.0000 0.43868  0.56100  0.26272  Biso   1.000  C
  H45      1.0000 0.44439  0.65721  0.44728  Biso   1.000  H
  C65      1.0000 0.46028  0.63310  0.59458  Biso   1.000  C
  C66      1.0000 0.46818  0.59582  0.77812  Biso   1.000  C
  H46      1.0000 0.40978  0.56441  0.19311  Biso   1.000  H
  H47      1.0000 0.41374  0.53540  0.29413  Biso   1.000  H
  C67      1.0000 0.53871  0.55580  0.25149  Biso   1.000  C
  H48      1.0000 0.46881  0.65922  0.62820  Biso   1.000  H
  C68      1.0000 0.37369  0.57809  0.81617  Biso   1.000  C
  C69      1.0000 0.54620  0.56665  0.82107  Biso   1.000  C
  C70      1.0000 0.48443  0.64139  0.81878  Biso   1.000  C
  C71      1.0000 0.61981  0.55281  0.24073  Biso   1.000  C
  H49      1.0000 0.32377  0.59381  0.78310  Biso   1.000  H
  H50      1.0000 0.37089  0.58090  0.89164  Biso   1.000  H
  H51      1.0000 0.36840  0.54850  0.79718  Biso   1.000  H
  C72      1.0000 0.54500  0.55201  0.92447  Biso   1.000  C
  C73      1.0000 0.62283  0.55548  0.76301  Biso   1.000  C
  C74      1.0000 0.41232  0.66849  0.84394  Biso   1.000  C
  C75      1.0000 0.57271  0.65909  0.82218  Biso   1.000  C
  C76      1.0000 0.71291  0.54831  0.22380  Biso   1.000  C
  H52      1.0000 0.49618  0.55979  0.96711  Biso   1.000  H
  C77      1.0000 0.61488  0.52589  0.96608  Biso   1.000  C
  C78      1.0000 0.69338  0.52991  0.80391  Biso   1.000  C
  H53      1.0000 0.62702  0.56559  0.69410  Biso   1.000  H
  H54      1.0000 0.35181  0.65829  0.83943  Biso   1.000  H
  C79      1.0000 0.42738  0.71001  0.87526  Biso   1.000  C
  C80      1.0000 0.58973  0.70029  0.85398  Biso   1.000  C
  H55      1.0000 0.62240  0.64232  0.80217  Biso   1.000  H
  C81      1.0000 0.79463  0.54359  0.21011  Biso   1.000  C
  C82      1.0000 0.68772  0.51451  0.90611  Biso   1.000  C
  H56      1.0000 0.61180  0.51620  0.03538  Biso   1.000  H
  H57      1.0000 0.74398  0.52309  0.76301  Biso   1.000  H
  H58      1.0000 0.37749  0.72730  0.89211  Biso   1.000  H
  C83      1.0000 0.51727  0.72589  0.88183  Biso   1.000  C
  H59      1.0000 0.64998  0.71081  0.85659  Biso   1.000  H
  C84      1.0000 0.88978  0.53530  0.19469  Biso   1.000  C
  O8       1.0000 0.75192  0.48734  0.95437  Biso   1.000  O
  O9       1.0000 0.52590  0.76703  0.92004  Biso   1.000  O
  H60      1.0000 0.89473  0.51030  0.14999  Biso   1.000  H
  H61      1.0000 0.91857  0.52828  0.26272  Biso   1.000  H
  O10      1.0000 0.94171  0.56913  0.14817  Biso   1.000  O
  C85      1.0000 0.83352  0.47701  0.89836  Biso   1.000  C
  C86      1.0000 0.61732  0.78390  0.93317  Biso   1.000  C
  C87      1.0000 0.96848  0.60261  0.21288  Biso   1.000  C
  H62      1.0000 0.81577  0.46719  0.82788  Biso   1.000  H
  H63      1.0000 0.86562  0.45379  0.93444  Biso   1.000  H
  C88      1.0000 0.89631  0.51330  0.89021  Biso   1.000  C
  H64      1.0000 0.65779  0.76199  0.96228  Biso   1.000  H
  H65      1.0000 0.61617  0.80721  0.98348  Biso   1.000  H
  C89      1.0000 0.65502  0.79930  0.83397  Biso   1.000  C
  C90      1.0000 0.92229  0.61521  0.30141  Biso   1.000  C
  C91      1.0000 0.04338  0.62541  0.18243  Biso   1.000  C
  C92      1.0000 0.94670  0.54279  0.88610  Biso   1.000  C
  C93      1.0000 0.68452  0.81409  0.75272  Biso   1.000  C
  H66      1.0000 0.87057  0.60019  0.32340  Biso   1.000  H
  C94      1.0000 0.95351  0.65019  0.35686  Biso   1.000  C
  C95      1.0000 0.07380  0.66030  0.23962  Biso   1.000  C
  H67      1.0000 0.07447  0.61732  0.12207  Biso   1.000  H
  C96      1.0000 0.00842  0.57621  0.88309  Biso   1.000  C
  C97      1.0000 0.71607  0.83179  0.66380  Biso   1.000  C
  H68      1.0000 0.92121  0.65871  0.41603  Biso   1.000  H
  C98      1.0000 0.03008  0.67341  0.32973  Biso   1.000  C
  H69      1.0000 0.12523  0.67529  0.21700  Biso   1.000  H
  C99      1.0000 0.06211  0.60590  0.88088  Biso   1.000  C
  C100     1.0000 0.74441  0.84850  0.58580  Biso   1.000  C
  C101     1.0000 0.06330  0.71151  0.39721  Biso   1.000  C
  C102     1.0000 0.12608  0.64069  0.88531  Biso   1.000  C
  C103     1.0000 0.78052  0.87101  0.49317  Biso   1.000  C
  C104     1.0000 0.98512  0.74531  0.40543  Biso   1.000  C
  C105     1.0000 0.14467  0.73549  0.34658  Biso   1.000  C
  C106     1.0000 0.09360  0.69359  0.50748  Biso   1.000  C
  O11      1.0000 0.18477  0.64216  0.79710  Biso   1.000  O
  H70      1.0000 0.09163  0.66719  0.88879  Biso   1.000  H
  H71      1.0000 0.16401  0.63839  0.94947  Biso   1.000  H
  O12      1.0000 0.79027  0.84385  0.40338  Biso   1.000  O
  H72      1.0000 0.73883  0.89420  0.47442  Biso   1.000  H
  H73      1.0000 0.84038  0.88320  0.51207  Biso   1.000  H
  C107     1.0000 0.98470  0.77411  0.48810  Biso   1.000  C
  C108     1.0000 0.91981  0.75099  0.32348  Biso   1.000  C
  H74      1.0000 0.16697  0.75730  0.39420  Biso   1.000  H
  H75      1.0000 0.12357  0.74841  0.28139  Biso   1.000  H
  H76      1.0000 0.19388  0.71578  0.33281  Biso   1.000  H
  C109     1.0000 0.03168  0.68709  0.58746  Biso   1.000  C
  C110     1.0000 0.18429  0.68099  0.52797  Biso   1.000  C
  C111     1.0000 0.14887  0.65871  0.70344  Biso   1.000  C
  C112     1.0000 0.85519  0.81199  0.41002  Biso   1.000  C
  C113     1.0000 0.91949  0.80679  0.49293  Biso   1.000  C
  H77      1.0000 0.02927  0.77159  0.54221  Biso   1.000  H
  H78      1.0000 0.91920  0.73240  0.26612  Biso   1.000  H
  C114     1.0000 0.85662  0.78339  0.32593  Biso   1.000  C
  H79      1.0000 0.96977  0.69461  0.57583  Biso   1.000  H
  C115     1.0000 0.05807  0.66990  0.68413  Biso   1.000  C
  H80      1.0000 0.22762  0.68399  0.47529  Biso   1.000  H
  C116     1.0000 0.21191  0.66419  0.62401  Biso   1.000  C
  H81      1.0000 0.91913  0.82500  0.55092  Biso   1.000  H
  H82      1.0000 0.81361  0.78629  0.27032  Biso   1.000  H
  H83      1.0000 0.01438  0.66601  0.73603  Biso   1.000  H
  H84      1.0000 0.27362  0.65641  0.63556  Biso   1.000  H
  C117     1.0000 0.65500  0.70070  0.33400  Biso   1.000  C
  C118     1.0000 0.68450  0.68591  0.25267  Biso   1.000  C
  C119     1.0000 0.61730  0.71610  0.43320  Biso   1.000  C
  C120     1.0000 0.71612  0.66821  0.16383  Biso   1.000  C
  O13      1.0000 0.52588  0.73297  0.41999  Biso   1.000  O
  H85      1.0000 0.65777  0.73801  0.46231  Biso   1.000  H
  H86      1.0000 0.61622  0.69279  0.48351  Biso   1.000  H
  C121     1.0000 0.74439  0.65150  0.08583  Biso   1.000  C
  C122     1.0000 0.51732  0.77411  0.38178  Biso   1.000  C
  C123     1.0000 0.78050  0.62899  0.99320  Biso   1.000  C
  C124     1.0000 0.42743  0.78999  0.37529  Biso   1.000  C
  C125     1.0000 0.58971  0.79971  0.35401  Biso   1.000  C
  H87      1.0000 0.84043  0.61680  0.01210  Biso   1.000  H
  H88      1.0000 0.73881  0.60580  0.97437  Biso   1.000  H
  O14      1.0000 0.79032  0.65615  0.90341  Biso   1.000  O
  C126     1.0000 0.41230  0.83151  0.34389  Biso   1.000  C
  H89      1.0000 0.37747  0.77270  0.39206  Biso   1.000  H
  H90      1.0000 0.65003  0.78919  0.35662  Biso   1.000  H
  C127     1.0000 0.57269  0.84091  0.32221  Biso   1.000  C
  C128     1.0000 0.85517  0.68801  0.90997  Biso   1.000  C
  C129     1.0000 0.48441  0.85861  0.31881  Biso   1.000  C
  H91      1.0000 0.35179  0.84171  0.33938  Biso   1.000  H
  H92      1.0000 0.62238  0.85768  0.30220  Biso   1.000  H
  C130     1.0000 0.91953  0.69321  0.99288  Biso   1.000  C
  C131     1.0000 0.85660  0.71661  0.82588  Biso   1.000  C
  C132     1.0000 0.46823  0.90418  0.27807  Biso   1.000  C
  H93      1.0000 0.91911  0.67500  0.05087  Biso   1.000  H
  C133     1.0000 0.98468  0.72589  0.98813  Biso   1.000  C
  C134     1.0000 0.91979  0.74901  0.82351  Biso   1.000  C
  H94      1.0000 0.81359  0.71371  0.77027  Biso   1.000  H
  C135     1.0000 0.37367  0.92191  0.31620  Biso   1.000  C
  C136     1.0000 0.54618  0.93335  0.32110  Biso   1.000  C
  C137     1.0000 0.46219  0.90482  0.15569  Biso   1.000  C
  C138     1.0000 0.98510  0.75469  0.90539  Biso   1.000  C
  H95      1.0000 0.02932  0.72841  0.04217  Biso   1.000  H
  H96      1.0000 0.91918  0.76760  0.76607  Biso   1.000  H
  H97      1.0000 0.32382  0.90619  0.28313  Biso   1.000  H
  H98      1.0000 0.37087  0.91910  0.39159  Biso   1.000  H
  H99      1.0000 0.36838  0.95150  0.29721  Biso   1.000  H
  C139     1.0000 0.54498  0.94799  0.42450  Biso   1.000  C
  C140     1.0000 0.62281  0.94452  0.26304  Biso   1.000  C
  C141     1.0000 0.45172  0.94209  0.10031  Biso   1.000  C
  C142     1.0000 0.46033  0.86690  0.09461  Biso   1.000  C
  C143     1.0000 0.06328  0.78849  0.89724  Biso   1.000  C
  H100     1.0000 0.49623  0.94021  0.46714  Biso   1.000  H
  C144     1.0000 0.61493  0.97411  0.46611  Biso   1.000  C
  C145     1.0000 0.69343  0.97009  0.30394  Biso   1.000  C
  H101     1.0000 0.62700  0.93441  0.19413  Biso   1.000  H
  H102     1.0000 0.45333  0.96760  0.13773  Biso   1.000  H
  C146     1.0000 0.43877  0.94369  0.99098  Biso   1.000  C
  H103     1.0000 0.46879  0.84078  0.12824  Biso   1.000  H
  C147     1.0000 0.44601  0.86798  0.98600  Biso   1.000  C
  C148     1.0000 0.14472  0.76451  0.84661  Biso   1.000  C
  C149     1.0000 0.03012  0.82659  0.82968  Biso   1.000  C
  C150     1.0000 0.09358  0.80641  0.00752  Biso   1.000  C
  H104     1.0000 0.61178  0.98380  0.53541  Biso   1.000  H
  C151     1.0000 0.68770  0.98549  0.40607  Biso   1.000  C
  H105     1.0000 0.74403  0.97691  0.26304  Biso   1.000  H
  H106     1.0000 0.43319  0.96961  0.95570  Biso   1.000  H
  C152     1.0000 0.43449  0.90548  0.93679  Biso   1.000  C
  H107     1.0000 0.44437  0.84279  0.94731  Biso   1.000  H
  H108     1.0000 0.16702  0.74270  0.89423  Biso   1.000  H
  H109     1.0000 0.12362  0.75159  0.78142  Biso   1.000  H
  H110     1.0000 0.19392  0.78422  0.83276  Biso   1.000  H
  C153     1.0000 0.95349  0.84981  0.85689  Biso   1.000  C
  C154     1.0000 0.07378  0.83970  0.73957  Biso   1.000  C
  C155     1.0000 0.03173  0.81291  0.08749  Biso   1.000  C
  C156     1.0000 0.18427  0.81901  0.02800  Biso   1.000  C
  O15      1.0000 0.75190  0.01266  0.45440  Biso   1.000  O
  O16      1.0000 0.41571  0.90281  0.82730  Biso   1.000  O
  C157     1.0000 0.92227  0.88479  0.80144  Biso   1.000  C
  H111     1.0000 0.92119  0.84129  0.91599  Biso   1.000  H
  H112     1.0000 0.12521  0.82471  0.71703  Biso   1.000  H
  C158     1.0000 0.04343  0.87459  0.68238  Biso   1.000  C
  H113     1.0000 0.96982  0.80539  0.07579  Biso   1.000  H
  C159     1.0000 0.05812  0.83010  0.18409  Biso   1.000  C
  H114     1.0000 0.22760  0.81601  0.97532  Biso   1.000  H
  C160     1.0000 0.21189  0.83581  0.12396  Biso   1.000  C
  C161     1.0000 0.83350  0.02299  0.39839  Biso   1.000  C
  C162     1.0000 0.43873  0.93900  0.76267  Biso   1.000  C
  C163     1.0000 0.96853  0.89739  0.71291  Biso   1.000  C
  H115     1.0000 0.87062  0.89981  0.82343  Biso   1.000  H
  H116     1.0000 0.07452  0.88268  0.62210  Biso   1.000  H
  C164     1.0000 0.14892  0.84129  0.20339  Biso   1.000  C
  H117     1.0000 0.01443  0.83399  0.23598  Biso   1.000  H
  H118     1.0000 0.27360  0.84359  0.13559  Biso   1.000  H
  C165     1.0000 0.89628  0.98670  0.39017  Biso   1.000  C
  H119     1.0000 0.81582  0.03281  0.32791  Biso   1.000  H
  H120     1.0000 0.86559  0.04621  0.43439  Biso   1.000  H
  H121     1.0000 0.40983  0.93559  0.69314  Biso   1.000  H
  H122     1.0000 0.41371  0.96460  0.79408  Biso   1.000  H
  C166     1.0000 0.53869  0.94420  0.75152  Biso   1.000  C
  O17      1.0000 0.94169  0.93087  0.64820  Biso   1.000  O
  O18      1.0000 0.18482  0.85784  0.29713  Biso   1.000  O
  C167     1.0000 0.94668  0.95721  0.38613  Biso   1.000  C
  C168     1.0000 0.61979  0.94719  0.74068  Biso   1.000  C
  C169     1.0000 0.88983  0.96470  0.69472  Biso   1.000  C
  C170     1.0000 0.12613  0.85931  0.38526  Biso   1.000  C
  C171     1.0000 0.00840  0.92379  0.38313  Biso   1.000  C
  C172     1.0000 0.71289  0.95169  0.72383  Biso   1.000  C
  C173     1.0000 0.79461  0.95641  0.71007  Biso   1.000  C
  H123     1.0000 0.89471  0.98970  0.65002  Biso   1.000  H
  H124     1.0000 0.91862  0.97172  0.76267  Biso   1.000  H
  C174     1.0000 0.06209  0.89410  0.38091  Biso   1.000  C
  H125     1.0000 0.09161  0.83281  0.38882  Biso   1.000  H
  H126     1.0000 0.16399  0.86161  0.44950  Biso   1.000  H
  C175     1.0000 0.34497  0.29930  0.66602  Biso   1.000  C
  C176     1.0000 0.38267  0.28390  0.56682  Biso   1.000  C
  C177     1.0000 0.31547  0.31409  0.74726  Biso   1.000  C
  O19      1.0000 0.47409  0.26703  0.58003  Biso   1.000  O
  H127     1.0000 0.34221  0.26199  0.53770  Biso   1.000  H
  H128     1.0000 0.38382  0.30721  0.51650  Biso   1.000  H
  C178     1.0000 0.28392  0.33179  0.83618  Biso   1.000  C
  C179     1.0000 0.48273  0.22589  0.61824  Biso   1.000  C
  C180     1.0000 0.25559  0.34850  0.91418  Biso   1.000  C
  C181     1.0000 0.57261  0.21001  0.62472  Biso   1.000  C
  C182     1.0000 0.41033  0.20029  0.64600  Biso   1.000  C
  C183     1.0000 0.21947  0.37101  0.00682  Biso   1.000  C
  C184     1.0000 0.58768  0.16849  0.65613  Biso   1.000  C
  H129     1.0000 0.62251  0.22730  0.60787  Biso   1.000  H
  H130     1.0000 0.35001  0.21081  0.64339  Biso   1.000  H
  C185     1.0000 0.42728  0.15909  0.67781  Biso   1.000  C
  H131     1.0000 0.15961  0.38320  0.98791  Biso   1.000  H
  H132     1.0000 0.26123  0.39420  0.02557  Biso   1.000  H
  O20      1.0000 0.20972  0.34385  0.09661  Biso   1.000  O
  C186     1.0000 0.51557  0.14139  0.68121  Biso   1.000  C
  H133     1.0000 0.64818  0.15829  0.66064  Biso   1.000  H
  H134     1.0000 0.37759  0.14232  0.69782  Biso   1.000  H
  C187     1.0000 0.14480  0.31199  0.08996  Biso   1.000  C
  C188     1.0000 0.53181  0.09582  0.72187  Biso   1.000  C
  C189     1.0000 0.08051  0.30679  0.00714  Biso   1.000  C
  C190     1.0000 0.14337  0.28339  0.17414  Biso   1.000  C
  C191     1.0000 0.62631  0.07809  0.68382  Biso   1.000  C
  C192     1.0000 0.45380  0.06665  0.67891  Biso   1.000  C
  C193     1.0000 0.53778  0.09518  0.84433  Biso   1.000  C
  H135     1.0000 0.08093  0.32500  0.94907  Biso   1.000  H
  C194     1.0000 0.01529  0.27411  0.01188  Biso   1.000  C
  C195     1.0000 0.08018  0.25099  0.17651  Biso   1.000  C
  H136     1.0000 0.18638  0.28629  0.22967  Biso   1.000  H
  H137     1.0000 0.67622  0.09381  0.71689  Biso   1.000  H
  H138     1.0000 0.62911  0.08090  0.60843  Biso   1.000  H
  H139     1.0000 0.63159  0.04850  0.70280  Biso   1.000  H
  C196     1.0000 0.45499  0.05201  0.57552  Biso   1.000  C
  C197     1.0000 0.37723  0.05548  0.73698  Biso   1.000  C
  C198     1.0000 0.54832  0.05791  0.89971  Biso   1.000  C
  C199     1.0000 0.53972  0.13310  0.90540  Biso   1.000  C
  H140     1.0000 0.97072  0.27159  0.95777  Biso   1.000  H
  C200     1.0000 0.01488  0.24531  0.09463  Biso   1.000  C
  H141     1.0000 0.08079  0.23240  0.23386  Biso   1.000  H
  H142     1.0000 0.50382  0.05979  0.53288  Biso   1.000  H
  C201     1.0000 0.38512  0.02589  0.53391  Biso   1.000  C
  C202     1.0000 0.30661  0.02991  0.69608  Biso   1.000  C
  H143     1.0000 0.37297  0.06559  0.80588  Biso   1.000  H
  H144     1.0000 0.54671  0.03240  0.86229  Biso   1.000  H
  C203     1.0000 0.56120  0.05631  0.00904  Biso   1.000  C
  H145     1.0000 0.53119  0.15922  0.87178  Biso   1.000  H
  C204     1.0000 0.55403  0.13202  0.01402  Biso   1.000  C
  C205     1.0000 0.93670  0.21151  0.10278  Biso   1.000  C
  H146     1.0000 0.38819  0.01620  0.46461  Biso   1.000  H
  C206     1.0000 0.31227  0.01451  0.59387  Biso   1.000  C
  H147     1.0000 0.25601  0.02309  0.73698  Biso   1.000  H
  H148     1.0000 0.56679  0.03039  0.04432  Biso   1.000  H
  C207     1.0000 0.56548  0.09452  0.06323  Biso   1.000  C
  H149     1.0000 0.55560  0.15721  0.05270  Biso   1.000  H
  C208     1.0000 0.90639  0.19359  0.99250  Biso   1.000  C
  C209     1.0000 0.85532  0.23549  0.15341  Biso   1.000  C
  C210     1.0000 0.96992  0.17341  0.17034  Biso   1.000  C
  O21      1.0000 0.24807  0.98734  0.54561  Biso   1.000  O
  O22      1.0000 0.58433  0.09719  0.17271  Biso   1.000  O
  C211     1.0000 0.96831  0.18709  0.91252  Biso   1.000  C
  C212     1.0000 0.81570  0.18099  0.97201  Biso   1.000  C
  H150     1.0000 0.83302  0.25730  0.10579  Biso   1.000  H
  H151     1.0000 0.87642  0.24841  0.21860  Biso   1.000  H
  H152     1.0000 0.80612  0.21578  0.16717  Biso   1.000  H
  C213     1.0000 0.92619  0.16030  0.26037  Biso   1.000  C
  C214     1.0000 0.04649  0.15019  0.14313  Biso   1.000  C
  C215     1.0000 0.16647  0.97701  0.60162  Biso   1.000  C
  C216     1.0000 0.56131  0.06100  0.23727  Biso   1.000  C
  H153     1.0000 0.03023  0.19461  0.92423  Biso   1.000  H
  C217     1.0000 0.94192  0.16990  0.81593  Biso   1.000  C
  C218     1.0000 0.78808  0.16419  0.87597  Biso   1.000  C
  H154     1.0000 0.77238  0.18399  0.02470  Biso   1.000  H
  H155     1.0000 0.87483  0.17529  0.28299  Biso   1.000  H
  C219     1.0000 0.95661  0.12541  0.31756  Biso   1.000  C
  C220     1.0000 0.07770  0.11521  0.19858  Biso   1.000  C
  H156     1.0000 0.07878  0.15871  0.08403  Biso   1.000  H
  C221     1.0000 0.10369  0.01330  0.60977  Biso   1.000  C
  H157     1.0000 0.18422  0.96719  0.67211  Biso   1.000  H
  H158     1.0000 0.13438  0.95379  0.56563  Biso   1.000  H
  H159     1.0000 0.59021  0.06441  0.30688  Biso   1.000  H
  H160     1.0000 0.58633  0.03540  0.20594  Biso   1.000  H
  C222     1.0000 0.46129  0.05580  0.24850  Biso   1.000  C
  C223     1.0000 0.85112  0.15871  0.79663  Biso   1.000  C
  H161     1.0000 0.98561  0.16601  0.76404  Biso   1.000  H
  H162     1.0000 0.72637  0.15641  0.86442  Biso   1.000  H
  H163     1.0000 0.92552  0.11732  0.37792  Biso   1.000  H
  C224     1.0000 0.03151  0.10261  0.28710  Biso   1.000  C
  H164     1.0000 0.12942  0.10019  0.17659  Biso   1.000  H
  C225     1.0000 0.05329  0.04279  0.61389  Biso   1.000  C
  C226     1.0000 0.38019  0.05281  0.25934  Biso   1.000  C
  O23      1.0000 0.81523  0.14216  0.70288  Biso   1.000  O
  O24      1.0000 0.05829  0.06913  0.35182  Biso   1.000  O
  C227     1.0000 0.99157  0.07621  0.61689  Biso   1.000  C
  C228     1.0000 0.28709  0.04831  0.27619  Biso   1.000  C
  C229     1.0000 0.87391  0.14069  0.61468  Biso   1.000  C
  C230     1.0000 0.11022  0.03530  0.30530  Biso   1.000  C
  C231     1.0000 0.93788  0.10590  0.61911  Biso   1.000  C
  C232     1.0000 0.20543  0.04359  0.28987  Biso   1.000  C
  H165     1.0000 0.90843  0.16719  0.61120  Biso   1.000  H
  H166     1.0000 0.83598  0.13839  0.55052  Biso   1.000  H
  H167     1.0000 0.10533  0.01030  0.35000  Biso   1.000  H
  H168     1.0000 0.08142  0.02828  0.23727  Biso   1.000  H
  Ne1      1.0000 0.22861  0.34993  0.40461  Biso   1.000  Ne
  He1      1.0000 0.36973  0.30732  0.74098  Biso   1.000  He
  He2      1.0000 0.11549  0.43433  0.41519  Biso   1.000  He
  He3      1.0000 0.15944  0.27849  0.24170  Biso   1.000  He
  Ar1      1.0000 0.26575  0.35290  0.43006  Biso   1.000  Ar
  Ne2      1.0000 0.22861  0.15007  0.90462  Biso   1.000  Ne
  He4      1.0000 0.00000  0.00000  0.00000  Biso   1.000  He
  He5      1.0000 0.18905  0.11793  0.88583  Biso   1.000  He
  He6      1.0000 0.16245  0.22050  0.74902  Biso   1.000  He
  Ar2      1.0000 0.23579  0.14921  0.89896  Biso   1.000  Ar
  Ne3      1.0000 0.77139  0.65007  0.59538  Biso   1.000  Ne
  He7      1.0000 0.83192  0.66028  0.85441  Biso   1.000  He
  He8      1.0000 0.71812  0.69066  0.55121  Biso   1.000  He
  He9      1.0000 0.81219  0.61711  0.61409  Biso   1.000  He
  Ar3      1.0000 0.73430  0.64733  0.57027  Biso   1.000  Ar
  Ne4      1.0000 0.77139  0.84993  0.09538  Biso   1.000  Ne
  He10     1.0000 0.77621  0.78884  0.16259  Biso   1.000  He
  He11     1.0000 0.81224  0.88292  0.11411  Biso   1.000  He
  He12     1.0000 0.62033  0.80422  0.74164  Biso   1.000  He
  Ar4      1.0000 0.74854  0.85597  0.08391  Biso   1.000  Ar
