data_image0
_cell_length_a       10.148
_cell_length_b       14.725
_cell_length_c       39.844
_cell_angle_alpha    90
_cell_angle_beta     92.15
_cell_angle_gamma    90

_symmetry_space_group_name_H-M    "P 1"
_symmetry_int_tables_number       1

loop_
  _symmetry_equiv_pos_as_xyz
  'x, y, z'

loop_
  _atom_site_label
  _atom_site_occupancy
  _atom_site_fract_x
  _atom_site_fract_y
  _atom_site_fract_z
  _atom_site_thermal_displace_type
  _atom_site_B_iso_or_equiv
  _atom_site_type_symbol
  C1       1.0000 0.53343  0.35443  0.48789  Biso   1.000  C
  C2       1.0000 0.45544  0.27531  0.47350  Biso   1.000  C
  C3       1.0000 0.66983  0.29460  0.47730  Biso   1.000  C
  O1       1.0000 0.65413  0.33182  0.49980  Biso   1.000  O
  H1       1.0000 0.48493  0.38153  0.50580  Biso   1.000  H
  H2       1.0000 0.54181  0.40000  0.47049  Biso   1.000  H
  C4       1.0000 0.53791  0.25453  0.46341  Biso   1.000  C
  O2       1.0000 0.44812  0.20149  0.49008  Biso   1.000  O
  H3       1.0000 0.49149  0.26051  0.45200  Biso   1.000  H
  H4       1.0000 0.48561  0.30363  0.45359  Biso   1.000  H
  C5       1.0000 0.38149  0.25012  0.50731  Biso   1.000  C
  H5       1.0000 0.36589  0.29637  0.46901  Biso   1.000  H
  H6       1.0000 0.70639  0.33453  0.46059  Biso   1.000  H
  H7       1.0000 0.73228  0.24598  0.48179  Biso   1.000  H
  C6       1.0000 0.73986  0.38737  0.51788  Biso   1.000  C
  H8       1.0000 0.55703  0.21263  0.44540  Biso   1.000  H
  C7       1.0000 0.30194  0.17100  0.50651  Biso   1.000  C
  C8       1.0000 0.31196  0.22832  0.51030  Biso   1.000  C
  H9       1.0000 0.42057  0.26547  0.52911  Biso   1.000  H
  H10      1.0000 0.34315  0.30248  0.49591  Biso   1.000  H
  H11      1.0000 0.33082  0.28041  0.52459  Biso   1.000  H
  C9       1.0000 0.87432  0.37202  0.51484  Biso   1.000  C
  C10      1.0000 0.69371  0.45209  0.53906  Biso   1.000  C
  C11      1.0000 0.26649  0.15980  0.52941  Biso   1.000  C
  H12      1.0000 0.32795  0.12713  0.48970  Biso   1.000  H
  H13      1.0000 0.24508  0.10798  0.51520  Biso   1.000  H
  H14      1.0000 0.20845  0.18377  0.50399  Biso   1.000  H
  H15      1.0000 0.24364  0.24577  0.49400  Biso   1.000  H
  C12      1.0000 0.96293  0.42390  0.53376  Biso   1.000  C
  H16      1.0000 0.90392  0.32747  0.50040  Biso   1.000  H
  H17      1.0000 0.60360  0.46173  0.54079  Biso   1.000  H
  C13      1.0000 0.78480  0.50363  0.55807  Biso   1.000  C
  O3       1.0000 0.35868  0.13440  0.55385  Biso   1.000  O
  H18      1.0000 0.18654  0.17908  0.53991  Biso   1.000  H
  C14      1.0000 0.91909  0.49141  0.55523  Biso   1.000  C
  C15      1.0000 0.10958  0.41093  0.52989  Biso   1.000  C
  O4       1.0000 0.72942  0.56577  0.57879  Biso   1.000  O
  C16      1.0000 0.30585  0.06581  0.57520  Biso   1.000  C
  H19      1.0000 0.97893  0.52747  0.56741  Biso   1.000  H
  O5       1.0000 0.16818  0.38289  0.56239  Biso   1.000  O
  H20      1.0000 0.14922  0.46723  0.52271  Biso   1.000  H
  H21      1.0000 0.12485  0.36482  0.51311  Biso   1.000  H
  C17      1.0000 0.81865  0.62010  0.59918  Biso   1.000  C
  H22      1.0000 0.26673  0.01732  0.56181  Biso   1.000  H
  H23      1.0000 0.23801  0.09182  0.58891  Biso   1.000  H
  C18      1.0000 0.41349  0.03042  0.59680  Biso   1.000  C
  C19      1.0000 0.28721  0.41630  0.56972  Biso   1.000  C
  C20      1.0000 0.73927  0.68292  0.61955  Biso   1.000  C
  H24      1.0000 0.87273  0.58139  0.61380  Biso   1.000  H
  H25      1.0000 0.87637  0.65453  0.58499  Biso   1.000  H
  H26      1.0000 0.45702  0.08020  0.60870  Biso   1.000  H
  O6       1.0000 0.50656  0.98363  0.57706  Biso   1.000  O
  H27      1.0000 0.37856  0.98927  0.61320  Biso   1.000  H
  O7       1.0000 0.34834  0.46520  0.55189  Biso   1.000  O
  C21      1.0000 0.34293  0.38608  0.60348  Biso   1.000  C
  O8       1.0000 0.66587  0.63341  0.64308  Biso   1.000  O
  H28      1.0000 0.67955  0.71728  0.60481  Biso   1.000  H
  H29      1.0000 0.79738  0.72543  0.63141  Biso   1.000  H
  C22      1.0000 0.58643  0.91701  0.59343  Biso   1.000  C
  N1       1.0000 0.29400  0.31131  0.61719  Biso   1.000  N
  C23      1.0000 0.44525  0.43762  0.61840  Biso   1.000  C
  C24      1.0000 0.60347  0.69202  0.66566  Biso   1.000  C
  H30      1.0000 0.53443  0.88557  0.60971  Biso   1.000  H
  H31      1.0000 0.61278  0.87273  0.57700  Biso   1.000  H
  C25      1.0000 0.70846  0.95491  0.61109  Biso   1.000  C
  C26      1.0000 0.35201  0.28360  0.64640  Biso   1.000  C
  C27      1.0000 0.49833  0.40978  0.64896  Biso   1.000  C
  H32      1.0000 0.47642  0.48930  0.60790  Biso   1.000  H
  C28      1.0000 0.51309  0.63810  0.68696  Biso   1.000  C
  H33      1.0000 0.66942  0.72251  0.67990  Biso   1.000  H
  H34      1.0000 0.55335  0.73793  0.65321  Biso   1.000  H
  O9       1.0000 0.66717  0.00992  0.63786  Biso   1.000  O
  H35      1.0000 0.75850  0.99083  0.59559  Biso   1.000  H
  H36      1.0000 0.76411  0.90587  0.61960  Biso   1.000  H
  C29      1.0000 0.45361  0.32978  0.66310  Biso   1.000  C
  C30      1.0000 0.30527  0.19681  0.66154  Biso   1.000  C
  H37      1.0000 0.56332  0.44421  0.65999  Biso   1.000  H
  O10      1.0000 0.58992  0.58221  0.70949  Biso   1.000  O
  H38      1.0000 0.45562  0.60048  0.67280  Biso   1.000  H
  H39      1.0000 0.45849  0.67891  0.69959  Biso   1.000  H
  C31      1.0000 0.76112  0.06071  0.65481  Biso   1.000  C
  H40      1.0000 0.49096  0.30798  0.68319  Biso   1.000  H
  O11      1.0000 0.17885  0.17888  0.65361  Biso   1.000  O
  O12      1.0000 0.37509  0.14947  0.67930  Biso   1.000  O
  C32      1.0000 0.50832  0.53080  0.73081  Biso   1.000  C
  C33      1.0000 0.89619  0.05202  0.65127  Biso   1.000  C
  C34      1.0000 0.71084  0.12367  0.67679  Biso   1.000  C
  C35      1.0000 0.12692  0.09623  0.66830  Biso   1.000  C
  C36      1.0000 0.59249  0.47660  0.75500  Biso   1.000  C
  H41      1.0000 0.45209  0.57141  0.74309  Biso   1.000  H
  H42      1.0000 0.45214  0.49039  0.71740  Biso   1.000  H
  H43      1.0000 0.92934  0.01039  0.63620  Biso   1.000  H
  C37      1.0000 0.98083  0.10662  0.67064  Biso   1.000  C
  C38      1.0000 0.79588  0.17739  0.69613  Biso   1.000  C
  H44      1.0000 0.62016  0.12978  0.67860  Biso   1.000  H
  H45      1.0000 0.14665  0.04428  0.65441  Biso   1.000  H
  H46      1.0000 0.16724  0.08652  0.69050  Biso   1.000  H
  O13      1.0000 0.66519  0.41121  0.73682  Biso   1.000  O
  H47      1.0000 0.53758  0.44611  0.77090  Biso   1.000  H
  H48      1.0000 0.65275  0.51647  0.76741  Biso   1.000  H
  C39      1.0000 0.93218  0.16951  0.69294  Biso   1.000  C
  O14      1.0000 0.73546  0.23497  0.71748  Biso   1.000  O
  C40      1.0000 0.73354  0.35042  0.75864  Biso   1.000  C
  H49      1.0000 0.98954  0.20611  0.70570  Biso   1.000  H
  C41      1.0000 0.81950  0.29080  0.73875  Biso   1.000  C
  H50      1.0000 0.78681  0.38418  0.77509  Biso   1.000  H
  H51      1.0000 0.67106  0.31368  0.77060  Biso   1.000  H
  H52      1.0000 0.87381  0.25297  0.75359  Biso   1.000  H
  H53      1.0000 0.87672  0.32727  0.72519  Biso   1.000  H
  C42      1.0000 0.46645  0.64557  0.51211  Biso   1.000  C
  O15      1.0000 0.34575  0.66818  0.50020  Biso   1.000  O
  C43      1.0000 0.33005  0.70540  0.52271  Biso   1.000  C
  H54      1.0000 0.51495  0.61847  0.49420  Biso   1.000  H
  H55      1.0000 0.45797  0.60000  0.52951  Biso   1.000  H
  C44      1.0000 0.54444  0.72469  0.52650  Biso   1.000  C
  C45      1.0000 0.25992  0.61263  0.48212  Biso   1.000  C
  C46      1.0000 0.46187  0.74547  0.53659  Biso   1.000  C
  H56      1.0000 0.29339  0.66547  0.53941  Biso   1.000  H
  H57      1.0000 0.26750  0.75402  0.51821  Biso   1.000  H
  O16      1.0000 0.55166  0.79851  0.50992  Biso   1.000  O
  H58      1.0000 0.50829  0.73949  0.54800  Biso   1.000  H
  H59      1.0000 0.63389  0.70363  0.53099  Biso   1.000  H
  C47      1.0000 0.61830  0.74988  0.49269  Biso   1.000  C
  H60      1.0000 0.51416  0.69637  0.54639  Biso   1.000  H
  C48      1.0000 0.30617  0.54791  0.46095  Biso   1.000  C
  C49      1.0000 0.12556  0.62798  0.48516  Biso   1.000  C
  H61      1.0000 0.44285  0.78737  0.55460  Biso   1.000  H
  C50      1.0000 0.69794  0.82900  0.49350  Biso   1.000  C
  C51      1.0000 0.68792  0.77168  0.48970  Biso   1.000  C
  H62      1.0000 0.57922  0.73453  0.47089  Biso   1.000  H
  H63      1.0000 0.65673  0.69752  0.50409  Biso   1.000  H
  H64      1.0000 0.66896  0.71959  0.47539  Biso   1.000  H
  C52      1.0000 0.21508  0.49637  0.44193  Biso   1.000  C
  H65      1.0000 0.39618  0.53827  0.45919  Biso   1.000  H
  C53      1.0000 0.03685  0.57610  0.46625  Biso   1.000  C
  H66      1.0000 0.09596  0.67253  0.49960  Biso   1.000  H
  C54      1.0000 0.73329  0.84020  0.47059  Biso   1.000  C
  H67      1.0000 0.67193  0.87287  0.51030  Biso   1.000  H
  H68      1.0000 0.75470  0.89202  0.48481  Biso   1.000  H
  H69      1.0000 0.79143  0.81623  0.49601  Biso   1.000  H
  H70      1.0000 0.75615  0.75423  0.50600  Biso   1.000  H
  O17      1.0000 0.27046  0.43423  0.42119  Biso   1.000  O
  C55      1.0000 0.08069  0.50859  0.44477  Biso   1.000  C
  C56      1.0000 0.89019  0.58907  0.47009  Biso   1.000  C
  O18      1.0000 0.64110  0.86560  0.44615  Biso   1.000  O
  H71      1.0000 0.81334  0.82092  0.46009  Biso   1.000  H
  C57      1.0000 0.18113  0.37990  0.40082  Biso   1.000  C
  H72      1.0000 0.02085  0.47253  0.43259  Biso   1.000  H
  O19      1.0000 0.83161  0.61711  0.43761  Biso   1.000  O
  H73      1.0000 0.85056  0.53277  0.47730  Biso   1.000  H
  H74      1.0000 0.87493  0.63518  0.48689  Biso   1.000  H
  C58      1.0000 0.69403  0.93419  0.42480  Biso   1.000  C
  C59      1.0000 0.26051  0.31708  0.38045  Biso   1.000  C
  H75      1.0000 0.12705  0.41861  0.38620  Biso   1.000  H
  H76      1.0000 0.12341  0.34547  0.41501  Biso   1.000  H
  C60      1.0000 0.71257  0.58370  0.43028  Biso   1.000  C
  C61      1.0000 0.58629  0.96958  0.40321  Biso   1.000  C
  H77      1.0000 0.73315  0.98268  0.43819  Biso   1.000  H
  H78      1.0000 0.76177  0.90818  0.41109  Biso   1.000  H
  O20      1.0000 0.33391  0.36659  0.35692  Biso   1.000  O
  H79      1.0000 0.32023  0.28272  0.39519  Biso   1.000  H
  H80      1.0000 0.20240  0.27457  0.36860  Biso   1.000  H
  O21      1.0000 0.65144  0.53480  0.44811  Biso   1.000  O
  C62      1.0000 0.65685  0.61392  0.39652  Biso   1.000  C
  O22      1.0000 0.49322  0.01637  0.42295  Biso   1.000  O
  H81      1.0000 0.54286  0.91980  0.39130  Biso   1.000  H
  H82      1.0000 0.62122  0.01073  0.38680  Biso   1.000  H
  C63      1.0000 0.39631  0.30798  0.33434  Biso   1.000  C
  N2       1.0000 0.70578  0.68869  0.38281  Biso   1.000  N
  C64      1.0000 0.55453  0.56238  0.38161  Biso   1.000  C
  C65      1.0000 0.41345  0.08299  0.40657  Biso   1.000  C
  C66      1.0000 0.48669  0.36190  0.31304  Biso   1.000  C
  H83      1.0000 0.33046  0.27749  0.32010  Biso   1.000  H
  H84      1.0000 0.44643  0.26207  0.34680  Biso   1.000  H
  C67      1.0000 0.64777  0.71640  0.35360  Biso   1.000  C
  C68      1.0000 0.50145  0.59022  0.35104  Biso   1.000  C
  H85      1.0000 0.52327  0.51070  0.39210  Biso   1.000  H
  C69      1.0000 0.29132  0.04509  0.38891  Biso   1.000  C
  H86      1.0000 0.46545  0.11443  0.39030  Biso   1.000  H
  H87      1.0000 0.38700  0.12727  0.42300  Biso   1.000  H
  O23      1.0000 0.40996  0.41779  0.29051  Biso   1.000  O
  H88      1.0000 0.54426  0.39952  0.32721  Biso   1.000  H
  H89      1.0000 0.54129  0.32109  0.30041  Biso   1.000  H
  C70      1.0000 0.69451  0.80319  0.33846  Biso   1.000  C
  C71      1.0000 0.54608  0.67022  0.33690  Biso   1.000  C
  H90      1.0000 0.43646  0.55579  0.33999  Biso   1.000  H
  O24      1.0000 0.33261  0.99008  0.36214  Biso   1.000  O
  H91      1.0000 0.24138  0.00917  0.40441  Biso   1.000  H
  H92      1.0000 0.23577  0.09413  0.38040  Biso   1.000  H
  C72      1.0000 0.49156  0.46920  0.26919  Biso   1.000  C
  O25      1.0000 0.82093  0.82112  0.34639  Biso   1.000  O
  O26      1.0000 0.62469  0.85053  0.32070  Biso   1.000  O
  H93      1.0000 0.50892  0.69202  0.31681  Biso   1.000  H
  C73      1.0000 0.23876  0.93929  0.34519  Biso   1.000  C
  C74      1.0000 0.40739  0.52340  0.24500  Biso   1.000  C
  H94      1.0000 0.54770  0.42859  0.25691  Biso   1.000  H
  H95      1.0000 0.54764  0.50961  0.28260  Biso   1.000  H
  C75      1.0000 0.87277  0.90377  0.33170  Biso   1.000  C
  C76      1.0000 0.28893  0.87633  0.32319  Biso   1.000  C
  C77      1.0000 0.10369  0.94798  0.34873  Biso   1.000  C
  O27      1.0000 0.33469  0.58879  0.26319  Biso   1.000  O
  H96      1.0000 0.46221  0.55389  0.22910  Biso   1.000  H
  H97      1.0000 0.34703  0.48353  0.23260  Biso   1.000  H
  C78      1.0000 0.01895  0.89338  0.32937  Biso   1.000  C
  H98      1.0000 0.85303  0.95572  0.34559  Biso   1.000  H
  H99      1.0000 0.83254  0.91348  0.30950  Biso   1.000  H
  C79      1.0000 0.20390  0.82261  0.30387  Biso   1.000  C
  H100     1.0000 0.37962  0.87022  0.32140  Biso   1.000  H
  H101     1.0000 0.07044  0.98961  0.36380  Biso   1.000  H
  C80      1.0000 0.26624  0.64958  0.24136  Biso   1.000  C
  C81      1.0000 0.06770  0.83049  0.30706  Biso   1.000  C
  O28      1.0000 0.26432  0.76503  0.28252  Biso   1.000  O
  C82      1.0000 0.18038  0.70920  0.26125  Biso   1.000  C
  H102     1.0000 0.21297  0.61582  0.22491  Biso   1.000  H
  H103     1.0000 0.32873  0.68632  0.22941  Biso   1.000  H
  H104     1.0000 0.01024  0.79389  0.29430  Biso   1.000  H
  H105     1.0000 0.12597  0.74703  0.24641  Biso   1.000  H
  H106     1.0000 0.12305  0.67273  0.27479  Biso   1.000  H
  C83      1.0000 0.76618  0.85039  0.74136  Biso   1.000  C
  O29      1.0000 0.83453  0.91117  0.76319  Biso   1.000  O
  C84      1.0000 0.68022  0.79083  0.76125  Biso   1.000  C
  H107     1.0000 0.71291  0.88421  0.72491  Biso   1.000  H
  H108     1.0000 0.82867  0.81372  0.72941  Biso   1.000  H
  C85      1.0000 0.90723  0.97657  0.74500  Biso   1.000  C
  O30      1.0000 0.76426  0.73501  0.78253  Biso   1.000  O
  H109     1.0000 0.62591  0.75301  0.74641  Biso   1.000  H
  H110     1.0000 0.62299  0.82730  0.77479  Biso   1.000  H
  H111     1.0000 0.96215  0.94608  0.72910  Biso   1.000  H
  H112     1.0000 0.84697  0.01650  0.73260  Biso   1.000  H
  C86      1.0000 0.99140  0.03083  0.76919  Biso   1.000  C
  C87      1.0000 0.70384  0.67742  0.80387  Biso   1.000  C
  O31      1.0000 0.90980  0.08217  0.79051  Biso   1.000  O
  H113     1.0000 0.04758  0.99042  0.78260  Biso   1.000  H
  H114     1.0000 0.04764  0.07138  0.75691  Biso   1.000  H
  C88      1.0000 0.56754  0.66947  0.80706  Biso   1.000  C
  C89      1.0000 0.78887  0.62370  0.82319  Biso   1.000  C
  C90      1.0000 0.98663  0.13813  0.81304  Biso   1.000  C
  C91      1.0000 0.51889  0.60659  0.82937  Biso   1.000  C
  H115     1.0000 0.51018  0.70608  0.79430  Biso   1.000  H
  C92      1.0000 0.73861  0.56068  0.84519  Biso   1.000  C
  H116     1.0000 0.87956  0.62981  0.82140  Biso   1.000  H
  C93      1.0000 0.89625  0.19199  0.83434  Biso   1.000  C
  H117     1.0000 0.04410  0.10051  0.82721  Biso   1.000  H
  H118     1.0000 0.04123  0.17888  0.80041  Biso   1.000  H
  C94      1.0000 0.60353  0.55199  0.84873  Biso   1.000  C
  C95      1.0000 0.37280  0.59620  0.83170  Biso   1.000  C
  O32      1.0000 0.83255  0.50988  0.86214  Biso   1.000  O
  O33      1.0000 0.83385  0.13338  0.85692  Biso   1.000  O
  H119     1.0000 0.83030  0.22248  0.82010  Biso   1.000  H
  H120     1.0000 0.94637  0.23789  0.84680  Biso   1.000  H
  H121     1.0000 0.57038  0.51042  0.86380  Biso   1.000  H
  O34      1.0000 0.32087  0.67891  0.84639  Biso   1.000  O
  H122     1.0000 0.35307  0.54431  0.84559  Biso   1.000  H
  H123     1.0000 0.33248  0.58649  0.80950  Biso   1.000  H
  C96      1.0000 0.79126  0.45487  0.88892  Biso   1.000  C
  C97      1.0000 0.76045  0.18289  0.88045  Biso   1.000  C
  C98      1.0000 0.19445  0.69677  0.83846  Biso   1.000  C
  C99      1.0000 0.91330  0.41698  0.90657  Biso   1.000  C
  H124     1.0000 0.74122  0.49080  0.90439  Biso   1.000  H
  H125     1.0000 0.73561  0.40591  0.88040  Biso   1.000  H
  H126     1.0000 0.82017  0.21732  0.89519  Biso   1.000  H
  H127     1.0000 0.70234  0.22540  0.86860  Biso   1.000  H
  C100     1.0000 0.68107  0.12007  0.90082  Biso   1.000  C
  O35      1.0000 0.12463  0.64951  0.82070  Biso   1.000  O
  C101     1.0000 0.14770  0.78363  0.85358  Biso   1.000  C
  O36      1.0000 0.99316  0.48360  0.92295  Biso   1.000  O
  H128     1.0000 0.96529  0.38560  0.89030  Biso   1.000  H
  H129     1.0000 0.88694  0.37270  0.92300  Biso   1.000  H
  O37      1.0000 0.77030  0.06581  0.92119  Biso   1.000  O
  H130     1.0000 0.62699  0.08143  0.88620  Biso   1.000  H
  H131     1.0000 0.62335  0.15450  0.91501  Biso   1.000  H
  N3       1.0000 0.20572  0.81127  0.88281  Biso   1.000  N
  C102     1.0000 0.04612  0.82981  0.83690  Biso   1.000  C
  C103     1.0000 0.08623  0.53039  0.90321  Biso   1.000  C
  C104     1.0000 0.71492  0.00360  0.94193  Biso   1.000  C
  C105     1.0000 0.15679  0.88611  0.89653  Biso   1.000  C
  H132     1.0000 0.00877  0.80801  0.81681  Biso   1.000  H
  C106     1.0000 0.00139  0.90981  0.85104  Biso   1.000  C
  C107     1.0000 0.19387  0.56577  0.92481  Biso   1.000  C
  H133     1.0000 0.12116  0.48930  0.88681  Biso   1.000  H
  H134     1.0000 0.04270  0.58017  0.89130  Biso   1.000  H
  C108     1.0000 0.80601  0.95212  0.96095  Biso   1.000  C
  C109     1.0000 0.58063  0.99138  0.94475  Biso   1.000  C
  C110     1.0000 0.05447  0.93759  0.88161  Biso   1.000  C
  C111     1.0000 0.21251  0.91633  0.93028  Biso   1.000  C
  H135     1.0000 0.93640  0.94418  0.83999  Biso   1.000  H
  O38      1.0000 0.14104  0.63443  0.94615  Biso   1.000  O
  H136     1.0000 0.23299  0.51728  0.93819  Biso   1.000  H
  H137     1.0000 0.26171  0.59178  0.91109  Biso   1.000  H
  C112     1.0000 0.75986  0.88740  0.98212  Biso   1.000  C
  H138     1.0000 0.89611  0.96170  0.95919  Biso   1.000  H
  C113     1.0000 0.53679  0.92387  0.96625  Biso   1.000  C
  H139     1.0000 0.52079  0.02750  0.93259  Biso   1.000  H
  H140     1.0000 0.02330  0.98927  0.89210  Biso   1.000  H
  O39      1.0000 0.15138  0.96523  0.94809  Biso   1.000  O
  O40      1.0000 0.33155  0.88292  0.93761  Biso   1.000  O
  C114     1.0000 0.23323  0.65983  0.97059  Biso   1.000  C
  C115     1.0000 0.62540  0.87199  0.98516  Biso   1.000  C
  O41      1.0000 0.84569  0.83178  0.00020  Biso   1.000  O
  C116     1.0000 0.39013  0.91090  0.97009  Biso   1.000  C
  H141     1.0000 0.31318  0.67912  0.96009  Biso   1.000  H
  C117     1.0000 0.19778  0.67097  0.99350  Biso   1.000  C
  H142     1.0000 0.25464  0.60801  0.98481  Biso   1.000  H
  C118     1.0000 0.18786  0.72829  0.98970  Biso   1.000  C
  H143     1.0000 0.29137  0.68380  0.99601  Biso   1.000  H
  H144     1.0000 0.59580  0.82750  0.99960  Biso   1.000  H
  C119     1.0000 0.96639  0.85440  0.01211  Biso   1.000  C
  C120     1.0000 0.83009  0.79457  0.02271  Biso   1.000  C
  H145     1.0000 0.35050  0.96720  0.97730  Biso   1.000  H
  H146     1.0000 0.37487  0.86479  0.98689  Biso   1.000  H
  C121     1.0000 0.11824  0.75008  0.99269  Biso   1.000  C
  O42      1.0000 0.05179  0.70153  0.00990  Biso   1.000  O
  H147     1.0000 0.17197  0.62710  0.01030  Biso   1.000  H
  H148     1.0000 0.16900  0.78037  0.97539  Biso   1.000  H
  H149     1.0000 0.15677  0.80251  0.00410  Biso   1.000  H
  H150     1.0000 0.25628  0.74581  0.00600  Biso   1.000  H
  H151     1.0000 0.95801  0.90003  0.02949  Biso   1.000  H
  H152     1.0000 0.01479  0.88149  0.99420  Biso   1.000  H
  C122     1.0000 0.04448  0.77528  0.02650  Biso   1.000  C
  C123     1.0000 0.96191  0.75450  0.03659  Biso   1.000  C
  H153     1.0000 0.79343  0.83450  0.03941  Biso   1.000  H
  H154     1.0000 0.76754  0.74601  0.01821  Biso   1.000  H
  H155     1.0000 0.07916  0.76550  0.97089  Biso   1.000  H
  H156     1.0000 0.00843  0.76048  0.04800  Biso   1.000  H
  H157     1.0000 0.13403  0.79640  0.03099  Biso   1.000  H
  H158     1.0000 0.01430  0.80360  0.04639  Biso   1.000  H
  H159     1.0000 0.94289  0.71260  0.05460  Biso   1.000  H
  C124     1.0000 0.23360  0.14961  0.25864  Biso   1.000  C
  C125     1.0000 0.31956  0.20917  0.23875  Biso   1.000  C
  O43      1.0000 0.16525  0.08883  0.23681  Biso   1.000  O
  H160     1.0000 0.28697  0.11579  0.27509  Biso   1.000  H
  H161     1.0000 0.17112  0.18628  0.27060  Biso   1.000  H
  O44      1.0000 0.23552  0.26499  0.21748  Biso   1.000  O
  H162     1.0000 0.37397  0.24699  0.25359  Biso   1.000  H
  H163     1.0000 0.37689  0.17270  0.22521  Biso   1.000  H
  C126     1.0000 0.09255  0.02343  0.25500  Biso   1.000  C
  C127     1.0000 0.29594  0.32258  0.19613  Biso   1.000  C
  H164     1.0000 0.03764  0.05392  0.27090  Biso   1.000  H
  H165     1.0000 0.15281  0.98350  0.26741  Biso   1.000  H
  C128     1.0000 0.00838  0.96917  0.23081  Biso   1.000  C
  C129     1.0000 0.43224  0.33053  0.19294  Biso   1.000  C
  C130     1.0000 0.21100  0.37630  0.17679  Biso   1.000  C
  H166     1.0000 0.95215  0.92862  0.24309  Biso   1.000  H
  H167     1.0000 0.95220  0.00958  0.21740  Biso   1.000  H
  O45      1.0000 0.08998  0.91783  0.20949  Biso   1.000  O
  C131     1.0000 0.48099  0.39341  0.17064  Biso   1.000  C
  H168     1.0000 0.48960  0.29392  0.20570  Biso   1.000  H
  C132     1.0000 0.26118  0.43932  0.15481  Biso   1.000  C
  H169     1.0000 0.12032  0.37019  0.17860  Biso   1.000  H
  C133     1.0000 0.01315  0.86187  0.18696  Biso   1.000  C
  C134     1.0000 0.39625  0.44801  0.15127  Biso   1.000  C
  C135     1.0000 0.62708  0.40380  0.16830  Biso   1.000  C
  O46      1.0000 0.16723  0.49012  0.13786  Biso   1.000  O
  H170     1.0000 0.95568  0.89949  0.17280  Biso   1.000  H
  H171     1.0000 0.95845  0.82112  0.19959  Biso   1.000  H
  C136     1.0000 0.10353  0.80801  0.16566  Biso   1.000  C
  H172     1.0000 0.42950  0.48958  0.13620  Biso   1.000  H
  O47      1.0000 0.67891  0.32109  0.15361  Biso   1.000  O
  H173     1.0000 0.64671  0.45569  0.15441  Biso   1.000  H
  H174     1.0000 0.66730  0.41351  0.19050  Biso   1.000  H
  C137     1.0000 0.20862  0.54513  0.11109  Biso   1.000  C
  O48      1.0000 0.16593  0.86662  0.14308  Biso   1.000  O
  H175     1.0000 0.16948  0.77752  0.17990  Biso   1.000  H
  H176     1.0000 0.05351  0.76211  0.15320  Biso   1.000  H
  C138     1.0000 0.80533  0.30323  0.16154  Biso   1.000  C
  C139     1.0000 0.08649  0.58302  0.09343  Biso   1.000  C
  H177     1.0000 0.25856  0.50920  0.09559  Biso   1.000  H
  H178     1.0000 0.26417  0.59409  0.11960  Biso   1.000  H
  C140     1.0000 0.23933  0.81711  0.11955  Biso   1.000  C
  O49      1.0000 0.87525  0.35049  0.17930  Biso   1.000  O
  C141     1.0000 0.85217  0.21637  0.14640  Biso   1.000  C
  O50      1.0000 0.00672  0.51640  0.07705  Biso   1.000  O
  H179     1.0000 0.03449  0.61440  0.10970  Biso   1.000  H
  H180     1.0000 0.11284  0.62730  0.07700  Biso   1.000  H
  H181     1.0000 0.17971  0.78268  0.10481  Biso   1.000  H
  H182     1.0000 0.29744  0.77460  0.13140  Biso   1.000  H
  C142     1.0000 0.31881  0.87993  0.09918  Biso   1.000  C
  N4       1.0000 0.79416  0.18873  0.11719  Biso   1.000  N
  C143     1.0000 0.95376  0.17019  0.16310  Biso   1.000  C
  C144     1.0000 0.91355  0.46961  0.09680  Biso   1.000  C
  O51      1.0000 0.22948  0.93419  0.07879  Biso   1.000  O
  H183     1.0000 0.37289  0.91857  0.11380  Biso   1.000  H
  H184     1.0000 0.37643  0.84550  0.08499  Biso   1.000  H
  C145     1.0000 0.84309  0.11389  0.10348  Biso   1.000  C
  H185     1.0000 0.99102  0.19199  0.18319  Biso   1.000  H
  C146     1.0000 0.99839  0.09019  0.14896  Biso   1.000  C
  C147     1.0000 0.80591  0.43423  0.07520  Biso   1.000  C
  H186     1.0000 0.87872  0.51070  0.11320  Biso   1.000  H
  H187     1.0000 0.95708  0.41983  0.10870  Biso   1.000  H
  C148     1.0000 0.28486  0.99640  0.05807  Biso   1.000  C
  C149     1.0000 0.94531  0.06241  0.11839  Biso   1.000  C
  C150     1.0000 0.78737  0.08367  0.06972  Biso   1.000  C
  H188     1.0000 0.06338  0.05582  0.16001  Biso   1.000  H
  O52      1.0000 0.85874  0.36557  0.05385  Biso   1.000  O
  H189     1.0000 0.76679  0.48272  0.06181  Biso   1.000  H
  H190     1.0000 0.73807  0.40822  0.08891  Biso   1.000  H
  C151     1.0000 0.19377  0.04788  0.03905  Biso   1.000  C
  C152     1.0000 0.41915  0.00862  0.05523  Biso   1.000  C
  H191     1.0000 0.97657  0.01073  0.10790  Biso   1.000  H
  O53      1.0000 0.84850  0.03477  0.05189  Biso   1.000  O
  O54      1.0000 0.66824  0.11708  0.06239  Biso   1.000  O
  C153     1.0000 0.76665  0.34017  0.02941  Biso   1.000  C
  C154     1.0000 0.24002  0.11260  0.01788  Biso   1.000  C
  H192     1.0000 0.10366  0.03830  0.04079  Biso   1.000  H
  C155     1.0000 0.46309  0.07613  0.03376  Biso   1.000  C
  H193     1.0000 0.47909  0.97250  0.06741  Biso   1.000  H
  C156     1.0000 0.60964  0.08910  0.02989  Biso   1.000  C
  H194     1.0000 0.68660  0.32088  0.03991  Biso   1.000  H
  C157     1.0000 0.80200  0.32903  0.00650  Biso   1.000  C
  H195     1.0000 0.74514  0.39199  0.01519  Biso   1.000  H
  C158     1.0000 0.81192  0.27171  0.01030  Biso   1.000  C
  H196     1.0000 0.70851  0.31620  0.00399  Biso   1.000  H
  C159     1.0000 0.37438  0.12801  0.01484  Biso   1.000  C
  O55      1.0000 0.15409  0.16822  0.99980  Biso   1.000  O
  H197     1.0000 0.64938  0.03280  0.02270  Biso   1.000  H
  H198     1.0000 0.62501  0.13521  0.01311  Biso   1.000  H
  O56      1.0000 0.94799  0.29847  0.99008  Biso   1.000  O
  H199     1.0000 0.82781  0.37290  0.98970  Biso   1.000  H
  C160     1.0000 0.88155  0.24992  0.00731  Biso   1.000  C
  H200     1.0000 0.84311  0.19749  0.99591  Biso   1.000  H
  H201     1.0000 0.74360  0.25419  0.99400  Biso   1.000  H
  H202     1.0000 0.83088  0.21963  0.02459  Biso   1.000  H
  H203     1.0000 0.40398  0.17250  0.00040  Biso   1.000  H
  C161     1.0000 0.03340  0.14560  0.98789  Biso   1.000  C
  C162     1.0000 0.16979  0.20543  0.97730  Biso   1.000  C
  C163     1.0000 0.95530  0.22472  0.97350  Biso   1.000  C
  C164     1.0000 0.03787  0.24550  0.96341  Biso   1.000  C
  H204     1.0000 0.92063  0.23450  0.02911  Biso   1.000  H
  H205     1.0000 0.98489  0.11851  0.00580  Biso   1.000  H
  H206     1.0000 0.04177  0.09997  0.97049  Biso   1.000  H
  H207     1.0000 0.20636  0.16550  0.96059  Biso   1.000  H
  H208     1.0000 0.23224  0.25399  0.98179  Biso   1.000  H
  H209     1.0000 0.99145  0.23952  0.95200  Biso   1.000  H
  H210     1.0000 0.86585  0.20360  0.96901  Biso   1.000  H
  H211     1.0000 0.98558  0.19640  0.95361  Biso   1.000  H
  H212     1.0000 0.05699  0.28740  0.94540  Biso   1.000  H
