data_image0
_cell_length_a       19.851
_cell_length_b       14.258
_cell_length_c       23.979
_cell_angle_alpha    90
_cell_angle_beta     101.03
_cell_angle_gamma    90

_symmetry_space_group_name_H-M    "P 1"
_symmetry_int_tables_number       1

loop_
  _symmetry_equiv_pos_as_xyz
  'x, y, z'

loop_
  _atom_site_label
  _atom_site_occupancy
  _atom_site_fract_x
  _atom_site_fract_y
  _atom_site_fract_z
  _atom_site_thermal_displace_type
  _atom_site_B_iso_or_equiv
  _atom_site_type_symbol
  C1       1.0000 0.57870  0.72268  0.34411  Biso   1.000  C
  H1       1.0000 0.56728  0.72991  0.37972  Biso   1.000  H
  C2       1.0000 0.54436  0.77500  0.29822  Biso   1.000  C
  C3       1.0000 0.62970  0.65998  0.33702  Biso   1.000  C
  C4       1.0000 0.56021  0.75985  0.24558  Biso   1.000  C
  C5       1.0000 0.49257  0.84809  0.30689  Biso   1.000  C
  C6       1.0000 0.64588  0.64708  0.28365  Biso   1.000  C
  H2       1.0000 0.65318  0.62660  0.36799  Biso   1.000  H
  C7       1.0000 0.61020  0.69575  0.23717  Biso   1.000  C
  H3       1.0000 0.53668  0.79345  0.21461  Biso   1.000  H
  N1       1.0000 0.52682  0.92699  0.34330  Biso   1.000  N
  H4       1.0000 0.47001  0.87256  0.27031  Biso   1.000  H
  H5       1.0000 0.45779  0.81961  0.32491  Biso   1.000  H
  O1       1.0000 0.69835  0.58536  0.28204  Biso   1.000  O
  H6       1.0000 0.61959  0.68600  0.20110  Biso   1.000  H
  H7       1.0000 0.53859  0.90665  0.37938  Biso   1.000  H
  H8       1.0000 0.56565  0.94270  0.33149  Biso   1.000  H
  C8       1.0000 0.48269  0.01234  0.34199  Biso   1.000  C
  C9       1.0000 0.71559  0.56396  0.22914  Biso   1.000  C
  H9       1.0000 0.43617  0.99348  0.34360  Biso   1.000  H
  C10      1.0000 0.50885  0.07799  0.39110  Biso   1.000  C
  H10      1.0000 0.48160  0.04545  0.30651  Biso   1.000  H
  C11      1.0000 0.78027  0.50617  0.23806  Biso   1.000  C
  H11      1.0000 0.72229  0.62162  0.20930  Biso   1.000  H
  H12      1.0000 0.67838  0.52932  0.20590  Biso   1.000  H
  N2       1.0000 0.58169  0.10345  0.39803  Biso   1.000  N
  H13      1.0000 0.48178  0.13494  0.38579  Biso   1.000  H
  H14      1.0000 0.50148  0.04860  0.42590  Biso   1.000  H
  N3       1.0000 0.82441  0.52020  0.28628  Biso   1.000  N
  O2       1.0000 0.79083  0.45238  0.19982  Biso   1.000  O
  C12      1.0000 0.59207  0.16475  0.35099  Biso   1.000  C
  C13      1.0000 0.60097  0.15465  0.45224  Biso   1.000  C
  H15      1.0000 0.81258  0.55646  0.31139  Biso   1.000  H
  C14      1.0000 0.89242  0.47657  0.29873  Biso   1.000  C
  C15      1.0000 0.66726  0.17548  0.34785  Biso   1.000  C
  H16      1.0000 0.57298  0.22619  0.35579  Biso   1.000  H
  H17      1.0000 0.56757  0.13894  0.31539  Biso   1.000  H
  H18      1.0000 0.56527  0.19975  0.45517  Biso   1.000  H
  H19      1.0000 0.64287  0.18937  0.45178  Biso   1.000  H
  C16      1.0000 0.61194  0.09188  0.50455  Biso   1.000  C
  H20      1.0000 0.90097  0.44459  0.26508  Biso   1.000  H
  H21      1.0000 0.89356  0.43021  0.32852  Biso   1.000  H
  C17      1.0000 0.94840  0.54881  0.31751  Biso   1.000  C
  N4       1.0000 0.67355  0.24463  0.30247  Biso   1.000  N
  H22      1.0000 0.69287  0.19708  0.38409  Biso   1.000  H
  H23      1.0000 0.68586  0.11537  0.33918  Biso   1.000  H
  N5       1.0000 0.67617  0.03500  0.51041  Biso   1.000  N
  H24      1.0000 0.61418  0.13045  0.53820  Biso   1.000  H
  H25      1.0000 0.57307  0.04994  0.50221  Biso   1.000  H
  C18      1.0000 0.98022  0.55541  0.37500  Biso   1.000  C
  C19      1.0000 0.96708  0.60969  0.27715  Biso   1.000  C
  H26      1.0000 0.65009  0.29668  0.30821  Biso   1.000  H
  H27      1.0000 0.65350  0.22037  0.26869  Biso   1.000  H
  C20      1.0000 0.74537  0.27255  0.29912  Biso   1.000  C
  H28      1.0000 0.67375  0.98738  0.53458  Biso   1.000  H
  H29      1.0000 0.67838  0.00989  0.47638  Biso   1.000  H
  C21      1.0000 0.74087  0.08907  0.53140  Biso   1.000  C
  C22      1.0000 0.95865  0.49236  0.41876  Biso   1.000  C
  C23      1.0000 0.03123  0.62358  0.39148  Biso   1.000  C
  C24      1.0000 0.93379  0.60226  0.21550  Biso   1.000  C
  C25      1.0000 0.01727  0.67871  0.29444  Biso   1.000  C
  C26      1.0000 0.78780  0.19175  0.28480  Biso   1.000  C
  H30      1.0000 0.76738  0.29899  0.33532  Biso   1.000  H
  H31      1.0000 0.74389  0.32087  0.27048  Biso   1.000  H
  H32      1.0000 0.74295  0.10668  0.57070  Biso   1.000  H
  H33      1.0000 0.74057  0.14609  0.50918  Biso   1.000  H
  C27      1.0000 0.80298  0.03184  0.52660  Biso   1.000  C
  H34      1.0000 0.91039  0.47980  0.40831  Biso   1.000  H
  H35      1.0000 0.96817  0.52265  0.45517  Biso   1.000  H
  H36      1.0000 0.98369  0.43449  0.42072  Biso   1.000  H
  C28      1.0000 0.04912  0.68691  0.35159  Biso   1.000  C
  C29      1.0000 0.06556  0.63326  0.45305  Biso   1.000  C
  H37      1.0000 0.90257  0.55008  0.21032  Biso   1.000  H
  H38      1.0000 0.96841  0.59300  0.19311  Biso   1.000  H
  H39      1.0000 0.90897  0.65900  0.20382  Biso   1.000  H
  C30      1.0000 0.03517  0.74695  0.25093  Biso   1.000  C
  C31      1.0000 0.83409  0.14665  0.32707  Biso   1.000  C
  C32      1.0000 0.78263  0.16173  0.22910  Biso   1.000  C
  C33      1.0000 0.83416  0.97454  0.57040  Biso   1.000  C
  C34      1.0000 0.83009  0.03437  0.47740  Biso   1.000  C
  C35      1.0000 0.09998  0.76469  0.37181  Biso   1.000  C
  N6       1.0000 0.02612  0.69806  0.48203  Biso   1.000  N
  H40      1.0000 0.06839  0.57238  0.47140  Biso   1.000  H
  H41      1.0000 0.11189  0.65696  0.45560  Biso   1.000  H
  N7       1.0000 0.98793  0.82648  0.24354  Biso   1.000  N
  H42      1.0000 0.08178  0.76939  0.26338  Biso   1.000  H
  H43      1.0000 0.03269  0.71518  0.21490  Biso   1.000  H
  C36      1.0000 0.87319  0.07259  0.31382  Biso   1.000  C
  H44      1.0000 0.83888  0.16643  0.36459  Biso   1.000  H
  C37      1.0000 0.82157  0.08767  0.21512  Biso   1.000  C
  H45      1.0000 0.75238  0.19217  0.20042  Biso   1.000  H
  C38      1.0000 0.89006  0.91927  0.56535  Biso   1.000  C
  H46      1.0000 0.81724  0.97307  0.60401  Biso   1.000  H
  C39      1.0000 0.88585  0.98029  0.47213  Biso   1.000  C
  H47      1.0000 0.81018  0.07308  0.44748  Biso   1.000  H
  H48      1.0000 0.14588  0.74036  0.37661  Biso   1.000  H
  H49      1.0000 0.09208  0.78868  0.40738  Biso   1.000  H
  H50      1.0000 0.09416  0.81421  0.34420  Biso   1.000  H
  H51      1.0000 0.98278  0.70318  0.46911  Biso   1.000  H
  C40      1.0000 0.05315  0.74856  0.52664  Biso   1.000  C
  H52      1.0000 0.98256  0.85706  0.27328  Biso   1.000  H
  C41      1.0000 0.95240  0.85461  0.19315  Biso   1.000  C
  C42      1.0000 0.86632  0.04299  0.25816  Biso   1.000  C
  H53      1.0000 0.90405  0.04278  0.34228  Biso   1.000  H
  H54      1.0000 0.81758  0.06845  0.17760  Biso   1.000  H
  C43      1.0000 0.91575  0.92236  0.51585  Biso   1.000  C
  H55      1.0000 0.91014  0.88028  0.59509  Biso   1.000  H
  H56      1.0000 0.90356  0.98275  0.43890  Biso   1.000  H
  O3       1.0000 0.11414  0.74611  0.54967  Biso   1.000  O
  C44      1.0000 0.00419  0.81119  0.54997  Biso   1.000  C
  O4       1.0000 0.95829  0.81940  0.14756  Biso   1.000  O
  C45      1.0000 0.90177  0.93344  0.19358  Biso   1.000  C
  O5       1.0000 0.90787  0.96921  0.24983  Biso   1.000  O
  O6       1.0000 0.97069  0.87046  0.50574  Biso   1.000  O
  H57      1.0000 0.97065  0.77360  0.56441  Biso   1.000  H
  H58      1.0000 0.02907  0.84865  0.58090  Biso   1.000  H
  H59      1.0000 0.91079  0.98310  0.16830  Biso   1.000  H
  H60      1.0000 0.85549  0.91065  0.18011  Biso   1.000  H
  C46      1.0000 0.43979  0.25992  0.25442  Biso   1.000  C
  C47      1.0000 0.38978  0.19582  0.26279  Biso   1.000  C
  C48      1.0000 0.45558  0.27500  0.20178  Biso   1.000  C
  H61      1.0000 0.46327  0.29352  0.28539  Biso   1.000  H
  C49      1.0000 0.35407  0.14708  0.21635  Biso   1.000  C
  H62      1.0000 0.38040  0.18600  0.29890  Biso   1.000  H
  C50      1.0000 0.42130  0.22268  0.15589  Biso   1.000  C
  C51      1.0000 0.50738  0.34809  0.19311  Biso   1.000  C
  O7       1.0000 0.30159  0.08543  0.21796  Biso   1.000  O
  C52      1.0000 0.37030  0.15998  0.16298  Biso   1.000  C
  H63      1.0000 0.43266  0.22991  0.12028  Biso   1.000  H
  N8       1.0000 0.47312  0.42699  0.15670  Biso   1.000  N
  H64      1.0000 0.52999  0.37256  0.22969  Biso   1.000  H
  H65      1.0000 0.54220  0.31961  0.17509  Biso   1.000  H
  C53      1.0000 0.28440  0.06396  0.27086  Biso   1.000  C
  H66      1.0000 0.34682  0.12660  0.13201  Biso   1.000  H
  H67      1.0000 0.46140  0.40672  0.12058  Biso   1.000  H
  H68      1.0000 0.43429  0.44270  0.16851  Biso   1.000  H
  C54      1.0000 0.51730  0.51241  0.15801  Biso   1.000  C
  C55      1.0000 0.21966  0.00617  0.26190  Biso   1.000  C
  H69      1.0000 0.27770  0.12162  0.29070  Biso   1.000  H
  H70      1.0000 0.32156  0.02932  0.29410  Biso   1.000  H
  C56      1.0000 0.49109  0.57799  0.10890  Biso   1.000  C
  H71      1.0000 0.56378  0.49348  0.15640  Biso   1.000  H
  H72      1.0000 0.51840  0.54552  0.19349  Biso   1.000  H
  N9       1.0000 0.17553  0.02020  0.21371  Biso   1.000  N
  O8       1.0000 0.20911  0.95238  0.30018  Biso   1.000  O
  N10      1.0000 0.41830  0.60345  0.10193  Biso   1.000  N
  H73      1.0000 0.51821  0.63501  0.11421  Biso   1.000  H
  H74      1.0000 0.49851  0.54860  0.07410  Biso   1.000  H
  H75      1.0000 0.18741  0.05653  0.18860  Biso   1.000  H
  C57      1.0000 0.10752  0.97657  0.20127  Biso   1.000  C
  C58      1.0000 0.40787  0.66475  0.14901  Biso   1.000  C
  C59      1.0000 0.39898  0.65465  0.04776  Biso   1.000  C
  C60      1.0000 0.05159  0.04881  0.18249  Biso   1.000  C
  H76      1.0000 0.09897  0.94459  0.23492  Biso   1.000  H
  H77      1.0000 0.10638  0.93021  0.17148  Biso   1.000  H
  C61      1.0000 0.33268  0.67548  0.15215  Biso   1.000  C
  H78      1.0000 0.42701  0.72619  0.14420  Biso   1.000  H
  H79      1.0000 0.43237  0.63901  0.18461  Biso   1.000  H
  H80      1.0000 0.43471  0.69975  0.04478  Biso   1.000  H
  H81      1.0000 0.35711  0.68937  0.04818  Biso   1.000  H
  C62      1.0000 0.38795  0.59188  0.99545  Biso   1.000  C
  C63      1.0000 0.01972  0.05541  0.12500  Biso   1.000  C
  C64      1.0000 0.03286  0.10969  0.22285  Biso   1.000  C
  N11      1.0000 0.32644  0.74470  0.19753  Biso   1.000  N
  H82      1.0000 0.30708  0.69708  0.11591  Biso   1.000  H
  H83      1.0000 0.31408  0.61537  0.16082  Biso   1.000  H
  N12      1.0000 0.32377  0.53500  0.98959  Biso   1.000  N
  H84      1.0000 0.38576  0.63045  0.96180  Biso   1.000  H
  H85      1.0000 0.42682  0.55001  0.99779  Biso   1.000  H
  C65      1.0000 0.96871  0.12358  0.10851  Biso   1.000  C
  C66      1.0000 0.04129  0.99243  0.08124  Biso   1.000  C
  C67      1.0000 0.06619  0.10233  0.28446  Biso   1.000  C
  C68      1.0000 0.98267  0.17871  0.20556  Biso   1.000  C
  H86      1.0000 0.34990  0.79668  0.19179  Biso   1.000  H
  H87      1.0000 0.34649  0.72037  0.23130  Biso   1.000  H
  C69      1.0000 0.25458  0.77255  0.20088  Biso   1.000  C
  H88      1.0000 0.32161  0.50989  0.02358  Biso   1.000  H
  H89      1.0000 0.32615  0.48738  0.96541  Biso   1.000  H
  C70      1.0000 0.25903  0.58907  0.96860  Biso   1.000  C
  C71      1.0000 0.95087  0.18691  0.14837  Biso   1.000  C
  C72      1.0000 0.93438  0.13333  0.04695  Biso   1.000  C
  H90      1.0000 0.03181  0.02272  0.04478  Biso   1.000  H
  H91      1.0000 0.08960  0.97980  0.09169  Biso   1.000  H
  H92      1.0000 0.01631  0.93449  0.07928  Biso   1.000  H
  H93      1.0000 0.09737  0.05008  0.28968  Biso   1.000  H
  H94      1.0000 0.03158  0.09300  0.30689  Biso   1.000  H
  H95      1.0000 0.09097  0.15900  0.29618  Biso   1.000  H
  C73      1.0000 0.96477  0.24702  0.24906  Biso   1.000  C
  C74      1.0000 0.21214  0.69175  0.21520  Biso   1.000  C
  H96      1.0000 0.23261  0.79899  0.16468  Biso   1.000  H
  H97      1.0000 0.25610  0.82087  0.22948  Biso   1.000  H
  H98      1.0000 0.25695  0.60668  0.92930  Biso   1.000  H
  H99      1.0000 0.25937  0.64609  0.99078  Biso   1.000  H
  C75      1.0000 0.19697  0.53191  0.97340  Biso   1.000  C
  C76      1.0000 0.90001  0.26469  0.12819  Biso   1.000  C
  N13      1.0000 0.97388  0.19806  0.01797  Biso   1.000  N
  H100     1.0000 0.93160  0.07238  0.02859  Biso   1.000  H
  H101     1.0000 0.88810  0.15696  0.04440  Biso   1.000  H
  N14      1.0000 0.01207  0.32648  0.25646  Biso   1.000  N
  H102     1.0000 0.91817  0.26939  0.23662  Biso   1.000  H
  H103     1.0000 0.96730  0.21518  0.28509  Biso   1.000  H
  C77      1.0000 0.16590  0.64665  0.17293  Biso   1.000  C
  C78      1.0000 0.21731  0.66180  0.27090  Biso   1.000  C
  C79      1.0000 0.16990  0.53437  0.02260  Biso   1.000  C
  C80      1.0000 0.16574  0.47461  0.92960  Biso   1.000  C
  H104     1.0000 0.85407  0.24043  0.12339  Biso   1.000  H
  H105     1.0000 0.90790  0.28868  0.09258  Biso   1.000  H
  H106     1.0000 0.90579  0.31421  0.15580  Biso   1.000  H
  H107     1.0000 0.01721  0.20318  0.03089  Biso   1.000  H
  C81      1.0000 0.94674  0.24856  0.97336  Biso   1.000  C
  H108     1.0000 0.01739  0.35706  0.22672  Biso   1.000  H
  C82      1.0000 0.04759  0.35461  0.30685  Biso   1.000  C
  C83      1.0000 0.12680  0.57259  0.18618  Biso   1.000  C
  H109     1.0000 0.16111  0.66650  0.13541  Biso   1.000  H
  C84      1.0000 0.17843  0.58767  0.28488  Biso   1.000  C
  H110     1.0000 0.24756  0.69217  0.29958  Biso   1.000  H
  C85      1.0000 0.11408  0.48029  0.02783  Biso   1.000  C
  H111     1.0000 0.18981  0.57308  0.05252  Biso   1.000  H
  C86      1.0000 0.10988  0.41927  0.93465  Biso   1.000  C
  H112     1.0000 0.18265  0.47307  0.89599  Biso   1.000  H
  O9       1.0000 0.88581  0.24611  0.95033  Biso   1.000  O
  C87      1.0000 0.99576  0.31119  0.95003  Biso   1.000  C
  O10      1.0000 0.04165  0.31940  0.35240  Biso   1.000  O
  C88      1.0000 0.09817  0.43351  0.30642  Biso   1.000  C
  C89      1.0000 0.13367  0.54299  0.24184  Biso   1.000  C
  H113     1.0000 0.09589  0.54278  0.15772  Biso   1.000  H
  H114     1.0000 0.18236  0.56845  0.32240  Biso   1.000  H
  C90      1.0000 0.08413  0.42236  0.98411  Biso   1.000  C
  H115     1.0000 0.09638  0.48282  0.06110  Biso   1.000  H
  H116     1.0000 0.08976  0.38028  0.90491  Biso   1.000  H
  H117     1.0000 0.97088  0.34872  0.91910  Biso   1.000  H
  O11      1.0000 0.02925  0.37046  0.99426  Biso   1.000  O
  H118     1.0000 0.02924  0.27360  0.93559  Biso   1.000  H
  O12      1.0000 0.09207  0.46928  0.25017  Biso   1.000  O
  H119     1.0000 0.08920  0.48310  0.33170  Biso   1.000  H
  H120     1.0000 0.14446  0.41072  0.31989  Biso   1.000  H
  C91      1.0000 0.42124  0.27732  0.65589  Biso   1.000  C
  C92      1.0000 0.45557  0.22500  0.70177  Biso   1.000  C
  H121     1.0000 0.43266  0.27009  0.62028  Biso   1.000  H
  C93      1.0000 0.37024  0.34002  0.66298  Biso   1.000  C
  C94      1.0000 0.50737  0.15191  0.69311  Biso   1.000  C
  C95      1.0000 0.43973  0.24008  0.75442  Biso   1.000  C
  C96      1.0000 0.35406  0.35292  0.71635  Biso   1.000  C
  H122     1.0000 0.34676  0.37340  0.63201  Biso   1.000  H
  N15      1.0000 0.47310  0.07301  0.65665  Biso   1.000  N
  H123     1.0000 0.52993  0.12737  0.72969  Biso   1.000  H
  H124     1.0000 0.54215  0.18039  0.67509  Biso   1.000  H
  C97      1.0000 0.38973  0.30418  0.76279  Biso   1.000  C
  H125     1.0000 0.46326  0.20648  0.78539  Biso   1.000  H
  O13      1.0000 0.30159  0.41457  0.71796  Biso   1.000  O
  C98      1.0000 0.51724  0.98759  0.65801  Biso   1.000  C
  H126     1.0000 0.46134  0.09328  0.62058  Biso   1.000  H
  H127     1.0000 0.43428  0.05730  0.66851  Biso   1.000  H
  H128     1.0000 0.38034  0.31400  0.79890  Biso   1.000  H
  C99      1.0000 0.28434  0.43597  0.77086  Biso   1.000  C
  C100     1.0000 0.49108  0.92201  0.60890  Biso   1.000  C
  H129     1.0000 0.56377  0.00652  0.65640  Biso   1.000  H
  H130     1.0000 0.51834  0.95448  0.69349  Biso   1.000  H
  C101     1.0000 0.21966  0.49376  0.76190  Biso   1.000  C
  H131     1.0000 0.27765  0.37838  0.79070  Biso   1.000  H
  H132     1.0000 0.32155  0.47068  0.79410  Biso   1.000  H
  N16      1.0000 0.41824  0.89648  0.60193  Biso   1.000  N
  H133     1.0000 0.51815  0.86499  0.61421  Biso   1.000  H
  H134     1.0000 0.49845  0.95140  0.57410  Biso   1.000  H
  N17      1.0000 0.17551  0.47980  0.71367  Biso   1.000  N
  O14      1.0000 0.20911  0.54755  0.80018  Biso   1.000  O
  C102     1.0000 0.39897  0.84528  0.54776  Biso   1.000  C
  C103     1.0000 0.40786  0.83518  0.64900  Biso   1.000  C
  C104     1.0000 0.10751  0.52336  0.70126  Biso   1.000  C
  H135     1.0000 0.18735  0.44347  0.68860  Biso   1.000  H
  C105     1.0000 0.38799  0.90812  0.49545  Biso   1.000  C
  H136     1.0000 0.43465  0.80018  0.54478  Biso   1.000  H
  H137     1.0000 0.35706  0.81063  0.54818  Biso   1.000  H
  C106     1.0000 0.33267  0.82452  0.65215  Biso   1.000  C
  H138     1.0000 0.42695  0.77381  0.64420  Biso   1.000  H
  H139     1.0000 0.43236  0.86099  0.68461  Biso   1.000  H
  C107     1.0000 0.05154  0.45119  0.68249  Biso   1.000  C
  H140     1.0000 0.09896  0.55541  0.73487  Biso   1.000  H
  H141     1.0000 0.10637  0.56979  0.67148  Biso   1.000  H
  N18      1.0000 0.32376  0.96500  0.48955  Biso   1.000  N
  H142     1.0000 0.38576  0.86948  0.46180  Biso   1.000  H
  H143     1.0000 0.42687  0.94999  0.49779  Biso   1.000  H
  N19      1.0000 0.32638  0.75530  0.69753  Biso   1.000  N
  H144     1.0000 0.30707  0.80292  0.61591  Biso   1.000  H
  H145     1.0000 0.31406  0.88463  0.66077  Biso   1.000  H
  C108     1.0000 0.01971  0.44459  0.62500  Biso   1.000  C
  C109     1.0000 0.03286  0.39031  0.72285  Biso   1.000  C
  C110     1.0000 0.25907  0.91093  0.46860  Biso   1.000  C
  H146     1.0000 0.32619  0.01262  0.46541  Biso   1.000  H
  H147     1.0000 0.32155  0.99011  0.52358  Biso   1.000  H
  H148     1.0000 0.34984  0.70332  0.69179  Biso   1.000  H
  H149     1.0000 0.34643  0.77963  0.73130  Biso   1.000  H
  C111     1.0000 0.25457  0.72738  0.70088  Biso   1.000  C
  C112     1.0000 0.96870  0.37642  0.60851  Biso   1.000  C
  C113     1.0000 0.04129  0.50757  0.58124  Biso   1.000  C
  C114     1.0000 0.98267  0.32129  0.70556  Biso   1.000  C
  C115     1.0000 0.06614  0.39767  0.78446  Biso   1.000  C
  C116     1.0000 0.19696  0.96809  0.47340  Biso   1.000  C
  H150     1.0000 0.25699  0.89332  0.42930  Biso   1.000  H
  H151     1.0000 0.25936  0.85391  0.49078  Biso   1.000  H
  C117     1.0000 0.21214  0.80818  0.71520  Biso   1.000  C
  H152     1.0000 0.23255  0.70101  0.66468  Biso   1.000  H
  H153     1.0000 0.25604  0.67913  0.72948  Biso   1.000  H
  C118     1.0000 0.93436  0.36667  0.54691  Biso   1.000  C
  C119     1.0000 0.95081  0.31309  0.64837  Biso   1.000  C
  H154     1.0000 0.08954  0.52020  0.59169  Biso   1.000  H
  H155     1.0000 0.03175  0.47728  0.54478  Biso   1.000  H
  H156     1.0000 0.01625  0.56551  0.57928  Biso   1.000  H
  C120     1.0000 0.96476  0.25298  0.74906  Biso   1.000  C
  H157     1.0000 0.09737  0.44985  0.78968  Biso   1.000  H
  H158     1.0000 0.03152  0.40700  0.80689  Biso   1.000  H
  H159     1.0000 0.09096  0.34100  0.79618  Biso   1.000  H
  C121     1.0000 0.16578  0.02539  0.42960  Biso   1.000  C
  C122     1.0000 0.16984  0.96563  0.52260  Biso   1.000  C
  C123     1.0000 0.16585  0.85328  0.67293  Biso   1.000  C
  C124     1.0000 0.21730  0.83820  0.77090  Biso   1.000  C
  N20      1.0000 0.97382  0.30187  0.51797  Biso   1.000  N
  H160     1.0000 0.93154  0.42762  0.52859  Biso   1.000  H
  H161     1.0000 0.88804  0.34297  0.54440  Biso   1.000  H
  C125     1.0000 0.89995  0.23531  0.62819  Biso   1.000  C
  N21      1.0000 0.01201  0.17352  0.75646  Biso   1.000  N
  H162     1.0000 0.91815  0.23061  0.73657  Biso   1.000  H
  H163     1.0000 0.96725  0.28482  0.78509  Biso   1.000  H
  C126     1.0000 0.10987  0.08073  0.43465  Biso   1.000  C
  H164     1.0000 0.18270  0.02693  0.39599  Biso   1.000  H
  C127     1.0000 0.11408  0.01971  0.52783  Biso   1.000  C
  H165     1.0000 0.18975  0.92692  0.55251  Biso   1.000  H
  C128     1.0000 0.12675  0.92741  0.68618  Biso   1.000  C
  H166     1.0000 0.16105  0.83350  0.63541  Biso   1.000  H
  C129     1.0000 0.17837  0.91233  0.78488  Biso   1.000  C
  H167     1.0000 0.24756  0.80783  0.79958  Biso   1.000  H
  C130     1.0000 0.94679  0.25137  0.47336  Biso   1.000  C
  H168     1.0000 0.01716  0.29682  0.53089  Biso   1.000  H
  H169     1.0000 0.85406  0.25957  0.62338  Biso   1.000  H
  H170     1.0000 0.90784  0.21132  0.59258  Biso   1.000  H
  H171     1.0000 0.90578  0.18579  0.65580  Biso   1.000  H
  H172     1.0000 0.01737  0.14287  0.72667  Biso   1.000  H
  C131     1.0000 0.04753  0.14539  0.80685  Biso   1.000  C
  C132     1.0000 0.08418  0.07757  0.48411  Biso   1.000  C
  H173     1.0000 0.08980  0.11972  0.40491  Biso   1.000  H
  H174     1.0000 0.09638  0.01718  0.56110  Biso   1.000  H
  C133     1.0000 0.13366  0.95701  0.74184  Biso   1.000  C
  H175     1.0000 0.09588  0.95722  0.65767  Biso   1.000  H
  H176     1.0000 0.18236  0.93148  0.82240  Biso   1.000  H
  C134     1.0000 0.99575  0.18881  0.45003  Biso   1.000  C
  O15      1.0000 0.88579  0.25389  0.45029  Biso   1.000  O
  O16      1.0000 0.04164  0.18060  0.85239  Biso   1.000  O
  C135     1.0000 0.09816  0.06649  0.80642  Biso   1.000  C
  O17      1.0000 0.02925  0.12947  0.49426  Biso   1.000  O
  O18      1.0000 0.09206  0.03072  0.75017  Biso   1.000  O
  H177     1.0000 0.02929  0.22640  0.43559  Biso   1.000  H
  H178     1.0000 0.97087  0.15128  0.41910  Biso   1.000  H
  H179     1.0000 0.08915  0.01690  0.83170  Biso   1.000  H
  H180     1.0000 0.14445  0.08928  0.81989  Biso   1.000  H
  C136     1.0000 0.56015  0.74008  0.74558  Biso   1.000  C
  C137     1.0000 0.54436  0.72500  0.79822  Biso   1.000  C
  C138     1.0000 0.61014  0.80418  0.73717  Biso   1.000  C
  H181     1.0000 0.53667  0.70648  0.71461  Biso   1.000  H
  C139     1.0000 0.49256  0.65191  0.80689  Biso   1.000  C
  C140     1.0000 0.57864  0.77725  0.84411  Biso   1.000  C
  C141     1.0000 0.64587  0.85285  0.78365  Biso   1.000  C
  H182     1.0000 0.61954  0.81400  0.70110  Biso   1.000  H
  N22      1.0000 0.52682  0.57301  0.84330  Biso   1.000  N
  H183     1.0000 0.46995  0.62737  0.77031  Biso   1.000  H
  H184     1.0000 0.45773  0.68039  0.82491  Biso   1.000  H
  H185     1.0000 0.56726  0.77009  0.87967  Biso   1.000  H
  C142     1.0000 0.62964  0.83995  0.83701  Biso   1.000  C
  O19      1.0000 0.69834  0.91457  0.78203  Biso   1.000  O
  C143     1.0000 0.48264  0.48759  0.84199  Biso   1.000  C
  H186     1.0000 0.53853  0.59328  0.87937  Biso   1.000  H
  H187     1.0000 0.56565  0.55730  0.83149  Biso   1.000  H
  H188     1.0000 0.65312  0.87340  0.86799  Biso   1.000  H
  C144     1.0000 0.71554  0.93597  0.72914  Biso   1.000  C
  C145     1.0000 0.50885  0.42201  0.89110  Biso   1.000  C
  H189     1.0000 0.43616  0.50645  0.84360  Biso   1.000  H
  H190     1.0000 0.48154  0.45448  0.80651  Biso   1.000  H
  C146     1.0000 0.78026  0.99376  0.73806  Biso   1.000  C
  H191     1.0000 0.72223  0.87838  0.70930  Biso   1.000  H
  H192     1.0000 0.67838  0.97068  0.70590  Biso   1.000  H
  N23      1.0000 0.58163  0.39648  0.89803  Biso   1.000  N
  H193     1.0000 0.48173  0.36499  0.88579  Biso   1.000  H
  H194     1.0000 0.50142  0.45140  0.92590  Biso   1.000  H
  N24      1.0000 0.82440  0.97980  0.78628  Biso   1.000  N
  O20      1.0000 0.79082  0.04755  0.69982  Biso   1.000  O
  C147     1.0000 0.59206  0.33518  0.85095  Biso   1.000  C
  C148     1.0000 0.60095  0.34528  0.95220  Biso   1.000  C
  C149     1.0000 0.89242  0.02336  0.79873  Biso   1.000  C
  H195     1.0000 0.81253  0.94347  0.81139  Biso   1.000  H
  C150     1.0000 0.66726  0.32452  0.84785  Biso   1.000  C
  H196     1.0000 0.57293  0.27381  0.85579  Biso   1.000  H
  H197     1.0000 0.56757  0.36099  0.81539  Biso   1.000  H
  H198     1.0000 0.56521  0.30018  0.95517  Biso   1.000  H
  H199     1.0000 0.64281  0.31056  0.95177  Biso   1.000  H
  C151     1.0000 0.61199  0.40812  0.00454  Biso   1.000  C
  C152     1.0000 0.94839  0.95119  0.81751  Biso   1.000  C
  H200     1.0000 0.90096  0.05534  0.76508  Biso   1.000  H
  H201     1.0000 0.89355  0.06979  0.82847  Biso   1.000  H
  N25      1.0000 0.67349  0.25530  0.80247  Biso   1.000  N
  H202     1.0000 0.69286  0.30292  0.88409  Biso   1.000  H
  H203     1.0000 0.68586  0.38456  0.83918  Biso   1.000  H
  N26      1.0000 0.67616  0.46500  0.01041  Biso   1.000  N
  H204     1.0000 0.61417  0.36948  0.03820  Biso   1.000  H
  H205     1.0000 0.57311  0.44999  0.00221  Biso   1.000  H
  C153     1.0000 0.96707  0.89031  0.77715  Biso   1.000  C
  C154     1.0000 0.98022  0.94459  0.87500  Biso   1.000  C
  C155     1.0000 0.74536  0.22738  0.79911  Biso   1.000  C
  H206     1.0000 0.65003  0.20332  0.80821  Biso   1.000  H
  H207     1.0000 0.65345  0.27956  0.76869  Biso   1.000  H
  H208     1.0000 0.67832  0.49011  0.97637  Biso   1.000  H
  H209     1.0000 0.67379  0.51255  0.03458  Biso   1.000  H
  C156     1.0000 0.74091  0.41086  0.03140  Biso   1.000  C
  C157     1.0000 0.01726  0.82129  0.79444  Biso   1.000  C
  C158     1.0000 0.93373  0.89767  0.71550  Biso   1.000  C
  C159     1.0000 0.03123  0.87635  0.89148  Biso   1.000  C
  C160     1.0000 0.95864  0.00757  0.91876  Biso   1.000  C
  C161     1.0000 0.78779  0.30818  0.78480  Biso   1.000  C
  H210     1.0000 0.76732  0.20101  0.83527  Biso   1.000  H
  H211     1.0000 0.74383  0.17913  0.77048  Biso   1.000  H
  H212     1.0000 0.74299  0.39332  0.07070  Biso   1.000  H
  H213     1.0000 0.74056  0.35391  0.00918  Biso   1.000  H
  C162     1.0000 0.80297  0.46809  0.02660  Biso   1.000  C
  C163     1.0000 0.03517  0.75298  0.75093  Biso   1.000  C
  C164     1.0000 0.04906  0.81309  0.85159  Biso   1.000  C
  H214     1.0000 0.90255  0.94985  0.71027  Biso   1.000  H
  H215     1.0000 0.96835  0.90700  0.69311  Biso   1.000  H
  H216     1.0000 0.90896  0.84100  0.70377  Biso   1.000  H
  C165     1.0000 0.06556  0.86667  0.95305  Biso   1.000  C
  H217     1.0000 0.96812  0.97728  0.95517  Biso   1.000  H
  H218     1.0000 0.91034  0.02020  0.90831  Biso   1.000  H
  H219     1.0000 0.98362  0.06544  0.92067  Biso   1.000  H
  C166     1.0000 0.78262  0.33820  0.72905  Biso   1.000  C
  C167     1.0000 0.83403  0.35328  0.82707  Biso   1.000  C
  C168     1.0000 0.83003  0.46556  0.97735  Biso   1.000  C
  C169     1.0000 0.83420  0.52539  0.07040  Biso   1.000  C
  N27      1.0000 0.98787  0.67345  0.74354  Biso   1.000  N
  H220     1.0000 0.08177  0.73061  0.76338  Biso   1.000  H
  H221     1.0000 0.03263  0.78475  0.71490  Biso   1.000  H
  C170     1.0000 0.09993  0.73531  0.87181  Biso   1.000  C
  N28      1.0000 0.02606  0.80187  0.98203  Biso   1.000  N
  H222     1.0000 0.06834  0.92755  0.97140  Biso   1.000  H
  H223     1.0000 0.11183  0.84297  0.95560  Biso   1.000  H
  C171     1.0000 0.82151  0.41226  0.71512  Biso   1.000  C
  H224     1.0000 0.75236  0.30776  0.70037  Biso   1.000  H
  C172     1.0000 0.87313  0.42741  0.81382  Biso   1.000  C
  H225     1.0000 0.83882  0.33350  0.86459  Biso   1.000  H
  C173     1.0000 0.88584  0.51971  0.97213  Biso   1.000  C
  H226     1.0000 0.81013  0.42692  0.94748  Biso   1.000  H
  C174     1.0000 0.89006  0.58066  0.06534  Biso   1.000  C
  H227     1.0000 0.81728  0.52686  0.10401  Biso   1.000  H
  C175     1.0000 0.95234  0.64539  0.69315  Biso   1.000  C
  H228     1.0000 0.98255  0.64287  0.77328  Biso   1.000  H
  H229     1.0000 0.14586  0.75957  0.87657  Biso   1.000  H
  H230     1.0000 0.09203  0.71125  0.90737  Biso   1.000  H
  H231     1.0000 0.09415  0.68579  0.84419  Biso   1.000  H
  H232     1.0000 0.98272  0.79675  0.96911  Biso   1.000  H
  C176     1.0000 0.05319  0.75137  0.02664  Biso   1.000  C
  C177     1.0000 0.86625  0.45701  0.75811  Biso   1.000  C
  H233     1.0000 0.81757  0.43148  0.67760  Biso   1.000  H
  H234     1.0000 0.90404  0.45722  0.84228  Biso   1.000  H
  H235     1.0000 0.90355  0.51718  0.93890  Biso   1.000  H
  C178     1.0000 0.91579  0.57757  0.01585  Biso   1.000  C
  H236     1.0000 0.91018  0.61965  0.09509  Biso   1.000  H
  C179     1.0000 0.90176  0.56649  0.69357  Biso   1.000  C
  O21      1.0000 0.95828  0.68060  0.64756  Biso   1.000  O
  O22      1.0000 0.11413  0.75389  0.04967  Biso   1.000  O
  C180     1.0000 0.00418  0.68881  0.04996  Biso   1.000  C
  O23      1.0000 0.90786  0.53072  0.74983  Biso   1.000  O
  O24      1.0000 0.97067  0.62947  0.00569  Biso   1.000  O
  H237     1.0000 0.91073  0.51690  0.66829  Biso   1.000  H
  H238     1.0000 0.85548  0.58928  0.68011  Biso   1.000  H
  H239     1.0000 0.97069  0.72640  0.06441  Biso   1.000  H
  H240     1.0000 0.02906  0.65128  0.08090  Biso   1.000  H
  Ne1      1.0000 0.18625  0.35172  0.14700  Biso   1.000  Ne
  He1      1.0000 0.32155  0.45756  0.24704  Biso   1.000  He
  He2      1.0000 0.01541  0.41094  0.11869  Biso   1.000  He
  He3      1.0000 0.18152  0.25050  0.11092  Biso   1.000  He
  Ar1      1.0000 0.19913  0.32026  0.15828  Biso   1.000  Ar
  Ne2      1.0000 0.18623  0.14826  0.64700  Biso   1.000  Ne
  He4      1.0000 0.32529  0.03836  0.75020  Biso   1.000  He
  He5      1.0000 0.96341  0.01696  0.59444  Biso   1.000  He
  He6      1.0000 0.18086  0.25387  0.60669  Biso   1.000  He
  He7      1.0000 0.22672  0.85549  0.60281  Biso   1.000  He
  Ar2      1.0000 0.19912  0.17972  0.65829  Biso   1.000  Ar
  Ne3      1.0000 0.81370  0.85170  0.35299  Biso   1.000  Ne
  He8      1.0000 0.80617  0.69031  0.45515  Biso   1.000  He
  He9      1.0000 0.95573  0.86512  0.37548  Biso   1.000  He
  He10     1.0000 0.67994  0.95593  0.25423  Biso   1.000  He
  Ar3      1.0000 0.80082  0.82027  0.34167  Biso   1.000  Ar
  Ne4      1.0000 0.81368  0.64825  0.85298  Biso   1.000  Ne
  He11     1.0000 0.81845  0.74968  0.88923  Biso   1.000  He
  He12     1.0000 0.95756  0.63147  0.87547  Biso   1.000  He
  He13     1.0000 0.67910  0.54317  0.75357  Biso   1.000  He
  Ar4      1.0000 0.80074  0.67986  0.84165  Biso   1.000  Ar
