data_image0
_cell_length_a       12.264
_cell_length_b       12.725
_cell_length_c       22.75
_cell_angle_alpha    87.29
_cell_angle_beta     87.84
_cell_angle_gamma    79.83

_symmetry_space_group_name_H-M    "P 1"
_symmetry_int_tables_number       1

loop_
  _symmetry_equiv_pos_as_xyz
  'x, y, z'

loop_
  _atom_site_label
  _atom_site_occupancy
  _atom_site_fract_x
  _atom_site_fract_y
  _atom_site_fract_z
  _atom_site_thermal_displace_type
  _atom_site_B_iso_or_equiv
  _atom_site_type_symbol
  C1       1.0000 0.49751  0.60547  0.60543  Biso   1.000  C
  C2       1.0000 0.40759  0.68496  0.59508  Biso   1.000  C
  H1       1.0000 0.54010  0.57559  0.57373  Biso   1.000  H
  C3       1.0000 0.52548  0.56902  0.66244  Biso   1.000  C
  C4       1.0000 0.34428  0.73008  0.64184  Biso   1.000  C
  H2       1.0000 0.38965  0.70812  0.55669  Biso   1.000  H
  C5       1.0000 0.45788  0.61252  0.70937  Biso   1.000  C
  C6       1.0000 0.62358  0.48051  0.67151  Biso   1.000  C
  C7       1.0000 0.36871  0.69243  0.69894  Biso   1.000  C
  O1       1.0000 0.25569  0.81463  0.63656  Biso   1.000  O
  H3       1.0000 0.47336  0.58729  0.74772  Biso   1.000  H
  N1       1.0000 0.70500  0.50573  0.71320  Biso   1.000  N
  H4       1.0000 0.32445  0.72137  0.73028  Biso   1.000  H
  C8       1.0000 0.23280  0.86267  0.57928  Biso   1.000  C
  C9       1.0000 0.80426  0.42051  0.71580  Biso   1.000  C
  H5       1.0000 0.67313  0.51295  0.74895  Biso   1.000  H
  H6       1.0000 0.72530  0.56750  0.70184  Biso   1.000  H
  C10      1.0000 0.16149  0.97186  0.58408  Biso   1.000  C
  H7       1.0000 0.30187  0.86927  0.55841  Biso   1.000  H
  H8       1.0000 0.19485  0.81747  0.55709  Biso   1.000  H
  C11      1.0000 0.87221  0.43617  0.76881  Biso   1.000  C
  C12      1.0000 0.91557  0.45551  0.72069  Biso   1.000  C
  N2       1.0000 0.15294  0.01435  0.63704  Biso   1.000  N
  O2       1.0000 0.11844  0.01434  0.53922  Biso   1.000  O
  H9       1.0000 0.93500  0.37798  0.77079  Biso   1.000  H
  H10      1.0000 0.82666  0.43009  0.80416  Biso   1.000  H
  N3       1.0000 0.91365  0.53592  0.76955  Biso   1.000  N
  C13      1.0000 0.89987  0.47457  0.82538  Biso   1.000  C
  C14      1.0000 0.99125  0.54776  0.72020  Biso   1.000  C
  H11      1.0000 0.97181  0.39334  0.72892  Biso   1.000  H
  H12      1.0000 0.93543  0.48825  0.68327  Biso   1.000  H
  C15      1.0000 0.08379  0.11856  0.64857  Biso   1.000  C
  C16      1.0000 0.96401  0.54787  0.82740  Biso   1.000  C
  C17      1.0000 0.02698  0.56357  0.76498  Biso   1.000  C
  C18      1.0000 0.88245  0.55951  0.87759  Biso   1.000  C
  H13      1.0000 0.83605  0.43939  0.82393  Biso   1.000  H
  H14      1.0000 0.96508  0.42049  0.83216  Biso   1.000  H
  H15      1.0000 0.95432  0.54017  0.68410  Biso   1.000  H
  C19      1.0000 0.03655  0.64895  0.71448  Biso   1.000  C
  H16      1.0000 0.05320  0.48885  0.72328  Biso   1.000  H
  C20      1.0000 0.14369  0.18966  0.68208  Biso   1.000  C
  H17      1.0000 0.06060  0.15432  0.61137  Biso   1.000  H
  H18      1.0000 0.01778  0.10714  0.67098  Biso   1.000  H
  H19      1.0000 0.99996  0.61005  0.82432  Biso   1.000  H
  H20      1.0000 0.02065  0.48580  0.83528  Biso   1.000  H
  H21      1.0000 0.04402  0.59081  0.80205  Biso   1.000  H
  H22      1.0000 0.08071  0.49961  0.75762  Biso   1.000  H
  N4       1.0000 0.79786  0.65925  0.87099  Biso   1.000  N
  N5       1.0000 0.94827  0.74511  0.71400  Biso   1.000  N
  C21      1.0000 0.21586  0.24867  0.65210  Biso   1.000  C
  C22      1.0000 0.12678  0.19673  0.74318  Biso   1.000  C
  C23      1.0000 0.75637  0.70075  0.92769  Biso   1.000  C
  H23      1.0000 0.74144  0.64551  0.85087  Biso   1.000  H
  H24      1.0000 0.82800  0.70862  0.85043  Biso   1.000  H
  C24      1.0000 0.98300  0.83588  0.67688  Biso   1.000  C
  H25      1.0000 0.88693  0.72885  0.69978  Biso   1.000  H
  H26      1.0000 0.93296  0.76575  0.75067  Biso   1.000  H
  C25      1.0000 0.23713  0.23555  0.58637  Biso   1.000  C
  C26      1.0000 0.26870  0.31751  0.68278  Biso   1.000  C
  C27      1.0000 0.18028  0.26645  0.77378  Biso   1.000  C
  C28      1.0000 0.05354  0.12912  0.77717  Biso   1.000  C
  C29      1.0000 0.66078  0.79456  0.92236  Biso   1.000  C
  H27      1.0000 0.73190  0.64393  0.95182  Biso   1.000  H
  H28      1.0000 0.81640  0.72329  0.94759  Biso   1.000  H
  C30      1.0000 0.89259  0.93132  0.66795  Biso   1.000  C
  H29      1.0000 0.00942  0.80952  0.63867  Biso   1.000  H
  H30      1.0000 0.04442  0.85852  0.69542  Biso   1.000  H
  H31      1.0000 0.30669  0.25629  0.57501  Biso   1.000  H
  H32      1.0000 0.23946  0.16213  0.57743  Biso   1.000  H
  H33      1.0000 0.17872  0.27986  0.56515  Biso   1.000  H
  C31      1.0000 0.25105  0.32554  0.74389  Biso   1.000  C
  C32      1.0000 0.34297  0.38256  0.64888  Biso   1.000  C
  C33      1.0000 0.16379  0.27214  0.83964  Biso   1.000  C
  H34      1.0000 0.98008  0.16965  0.78175  Biso   1.000  H
  H35      1.0000 0.05073  0.06619  0.75600  Biso   1.000  H
  H36      1.0000 0.08339  0.10878  0.81525  Biso   1.000  H
  C34      1.0000 0.66436  0.87834  0.88261  Biso   1.000  C
  C35      1.0000 0.56953  0.79784  0.96058  Biso   1.000  C
  C36      1.0000 0.87331  0.97657  0.61177  Biso   1.000  C
  C37      1.0000 0.83026  0.98228  0.71448  Biso   1.000  C
  C38      1.0000 0.31281  0.39722  0.77708  Biso   1.000  C
  H37      1.0000 0.34919  0.44497  0.67054  Biso   1.000  H
  H38      1.0000 0.31116  0.40679  0.61115  Biso   1.000  H
  N6       1.0000 0.45444  0.31717  0.63942  Biso   1.000  N
  H39      1.0000 0.08889  0.26323  0.85091  Biso   1.000  H
  H40      1.0000 0.17434  0.34164  0.85184  Biso   1.000  H
  N7       1.0000 0.24392  0.18752  0.86932  Biso   1.000  N
  C39      1.0000 0.57951  0.96410  0.88023  Biso   1.000  C
  H41      1.0000 0.72529  0.87691  0.85690  Biso   1.000  H
  H42      1.0000 0.56666  0.74128  0.98770  Biso   1.000  H
  C40      1.0000 0.48292  0.88346  0.95917  Biso   1.000  C
  H43      1.0000 0.91409  0.94404  0.58020  Biso   1.000  H
  C41      1.0000 0.79659  0.06705  0.60076  Biso   1.000  C
  H44      1.0000 0.84142  0.95442  0.75274  Biso   1.000  H
  C42      1.0000 0.75301  0.07260  0.70457  Biso   1.000  C
  H45      1.0000 0.32624  0.36770  0.81631  Biso   1.000  H
  H46      1.0000 0.38225  0.40153  0.75696  Biso   1.000  H
  H47      1.0000 0.26893  0.46743  0.77880  Biso   1.000  H
  C43      1.0000 0.50793  0.31174  0.58720  Biso   1.000  C
  C44      1.0000 0.22400  0.14932  0.92188  Biso   1.000  C
  C45      1.0000 0.48756  0.96715  0.91845  Biso   1.000  C
  H48      1.0000 0.58315  0.02043  0.85307  Biso   1.000  H
  H49      1.0000 0.42238  0.88486  0.98519  Biso   1.000  H
  C46      1.0000 0.73363  0.11473  0.64747  Biso   1.000  C
  H50      1.0000 0.78708  0.09610  0.56264  Biso   1.000  H
  H51      1.0000 0.71319  0.10608  0.73618  Biso   1.000  H
  C47      1.0000 0.61800  0.24122  0.58430  Biso   1.000  C
  O3       1.0000 0.46920  0.36017  0.54071  Biso   1.000  O
  C48      1.0000 0.30536  0.05543  0.94429  Biso   1.000  C
  O4       1.0000 0.13989  0.18095  0.95164  Biso   1.000  O
  O5       1.0000 0.40739  0.05493  0.91259  Biso   1.000  O
  O6       1.0000 0.65172  0.20346  0.64179  Biso   1.000  O
  H52      1.0000 0.67222  0.28067  0.56607  Biso   1.000  H
  H53      1.0000 0.61431  0.18106  0.56030  Biso   1.000  H
  H54      1.0000 0.27826  0.98966  0.93865  Biso   1.000  H
  H55      1.0000 0.31577  0.06100  0.98602  Biso   1.000  H
  C49      1.0000 0.50248  0.39445  0.39459  Biso   1.000  C
  C50      1.0000 0.47451  0.43090  0.33758  Biso   1.000  C
  C51      1.0000 0.59240  0.31495  0.40490  Biso   1.000  C
  H56      1.0000 0.45981  0.42433  0.42625  Biso   1.000  H
  C52      1.0000 0.37641  0.51940  0.32851  Biso   1.000  C
  C53      1.0000 0.54211  0.38739  0.29061  Biso   1.000  C
  C54      1.0000 0.65571  0.26984  0.35814  Biso   1.000  C
  H57      1.0000 0.61035  0.29180  0.44329  Biso   1.000  H
  N8       1.0000 0.29499  0.49419  0.28678  Biso   1.000  N
  C55      1.0000 0.63128  0.30749  0.30109  Biso   1.000  C
  H58      1.0000 0.52655  0.41262  0.25226  Biso   1.000  H
  O7       1.0000 0.74430  0.18529  0.36343  Biso   1.000  O
  C56      1.0000 0.19573  0.57941  0.28418  Biso   1.000  C
  H59      1.0000 0.32678  0.48697  0.25103  Biso   1.000  H
  H60      1.0000 0.27469  0.43242  0.29814  Biso   1.000  H
  H61      1.0000 0.67555  0.27854  0.26970  Biso   1.000  H
  C57      1.0000 0.76720  0.13724  0.42070  Biso   1.000  C
  C58      1.0000 0.08442  0.54441  0.27929  Biso   1.000  C
  C59      1.0000 0.12770  0.56374  0.23122  Biso   1.000  C
  C60      1.0000 0.83850  0.02806  0.41590  Biso   1.000  C
  H62      1.0000 0.69813  0.13065  0.44157  Biso   1.000  H
  H63      1.0000 0.80507  0.18244  0.44289  Biso   1.000  H
  C61      1.0000 0.00874  0.45216  0.27978  Biso   1.000  C
  N9       1.0000 0.08634  0.46400  0.23043  Biso   1.000  N
  H64      1.0000 0.02811  0.60658  0.27106  Biso   1.000  H
  H65      1.0000 0.06456  0.51166  0.31671  Biso   1.000  H
  C62      1.0000 0.10012  0.52535  0.17460  Biso   1.000  C
  H66      1.0000 0.06499  0.62194  0.22919  Biso   1.000  H
  H67      1.0000 0.17325  0.56983  0.19582  Biso   1.000  H
  N10      1.0000 0.84705  0.98557  0.36294  Biso   1.000  N
  O8       1.0000 0.88155  0.98558  0.46076  Biso   1.000  O
  C63      1.0000 0.96336  0.35097  0.28550  Biso   1.000  C
  C64      1.0000 0.97302  0.43635  0.23500  Biso   1.000  C
  H68      1.0000 0.04568  0.45975  0.31588  Biso   1.000  H
  H69      1.0000 0.94671  0.51107  0.27670  Biso   1.000  H
  C65      1.0000 0.03590  0.45205  0.17258  Biso   1.000  C
  C66      1.0000 0.11754  0.44040  0.12239  Biso   1.000  C
  H70      1.0000 0.16394  0.56053  0.17606  Biso   1.000  H
  H71      1.0000 0.03492  0.57943  0.16782  Biso   1.000  H
  C67      1.0000 0.91612  0.88136  0.35141  Biso   1.000  C
  N11      1.0000 0.05172  0.25481  0.28599  Biso   1.000  N
  H72      1.0000 0.95597  0.40911  0.19794  Biso   1.000  H
  H73      1.0000 0.91920  0.50031  0.24236  Biso   1.000  H
  H74      1.0000 0.00003  0.38986  0.17566  Biso   1.000  H
  H75      1.0000 0.97926  0.51412  0.16470  Biso   1.000  H
  N12      1.0000 0.20213  0.34067  0.12899  Biso   1.000  N
  C68      1.0000 0.85622  0.81026  0.31795  Biso   1.000  C
  H76      1.0000 0.93939  0.84560  0.38861  Biso   1.000  H
  H77      1.0000 0.98221  0.89278  0.32900  Biso   1.000  H
  C69      1.0000 0.01699  0.16404  0.32310  Biso   1.000  C
  H78      1.0000 0.11306  0.27106  0.30025  Biso   1.000  H
  H79      1.0000 0.06703  0.23416  0.24931  Biso   1.000  H
  C70      1.0000 0.24363  0.29917  0.07229  Biso   1.000  C
  H80      1.0000 0.25847  0.35441  0.14911  Biso   1.000  H
  H81      1.0000 0.17199  0.29130  0.14955  Biso   1.000  H
  C71      1.0000 0.78413  0.75125  0.34788  Biso   1.000  C
  C72      1.0000 0.87313  0.80318  0.25680  Biso   1.000  C
  C73      1.0000 0.10740  0.06860  0.33204  Biso   1.000  C
  H82      1.0000 0.99057  0.19040  0.36131  Biso   1.000  H
  H83      1.0000 0.95557  0.14140  0.30456  Biso   1.000  H
  C74      1.0000 0.33921  0.20536  0.07762  Biso   1.000  C
  H84      1.0000 0.26809  0.35599  0.04816  Biso   1.000  H
  H85      1.0000 0.18359  0.27663  0.05239  Biso   1.000  H
  C75      1.0000 0.73121  0.68241  0.31724  Biso   1.000  C
  C76      1.0000 0.76287  0.76436  0.41361  Biso   1.000  C
  C77      1.0000 0.81963  0.73346  0.22620  Biso   1.000  C
  C78      1.0000 0.94645  0.87080  0.22281  Biso   1.000  C
  C79      1.0000 0.12668  0.02335  0.38821  Biso   1.000  C
  C80      1.0000 0.16965  0.01764  0.28550  Biso   1.000  C
  C81      1.0000 0.33563  0.12158  0.11737  Biso   1.000  C
  C82      1.0000 0.43038  0.20207  0.03940  Biso   1.000  C
  C83      1.0000 0.65702  0.61735  0.35110  Biso   1.000  C
  C84      1.0000 0.74894  0.67438  0.25609  Biso   1.000  C
  H86      1.0000 0.69322  0.74363  0.42502  Biso   1.000  H
  H87      1.0000 0.76053  0.83778  0.42255  Biso   1.000  H
  H88      1.0000 0.82120  0.72006  0.43483  Biso   1.000  H
  C85      1.0000 0.83612  0.72778  0.16034  Biso   1.000  C
  H89      1.0000 0.94926  0.93372  0.24399  Biso   1.000  H
  H90      1.0000 0.91652  0.89114  0.18473  Biso   1.000  H
  H91      1.0000 0.01983  0.83027  0.21823  Biso   1.000  H
  H92      1.0000 0.08590  0.05587  0.41978  Biso   1.000  H
  C86      1.0000 0.20332  0.93287  0.39922  Biso   1.000  C
  H93      1.0000 0.15858  0.04550  0.24724  Biso   1.000  H
  C87      1.0000 0.24692  0.92724  0.29541  Biso   1.000  C
  C88      1.0000 0.42049  0.03581  0.11975  Biso   1.000  C
  H94      1.0000 0.27470  0.12300  0.14312  Biso   1.000  H
  H95      1.0000 0.43325  0.25864  0.01228  Biso   1.000  H
  C89      1.0000 0.51699  0.11646  0.04081  Biso   1.000  C
  N13      1.0000 0.54555  0.68275  0.36056  Biso   1.000  N
  H96      1.0000 0.65073  0.55495  0.32944  Biso   1.000  H
  H97      1.0000 0.68883  0.59313  0.38883  Biso   1.000  H
  C90      1.0000 0.68710  0.60269  0.22290  Biso   1.000  C
  N14      1.0000 0.75607  0.81240  0.13067  Biso   1.000  N
  H98      1.0000 0.91111  0.73669  0.14907  Biso   1.000  H
  H99      1.0000 0.82557  0.65828  0.14814  Biso   1.000  H
  C91      1.0000 0.26637  0.88519  0.35251  Biso   1.000  C
  H100     1.0000 0.21282  0.90382  0.43739  Biso   1.000  H
  H101     1.0000 0.28672  0.89384  0.26380  Biso   1.000  H
  C92      1.0000 0.51243  0.03277  0.08153  Biso   1.000  C
  H102     1.0000 0.41684  0.97949  0.14691  Biso   1.000  H
  H103     1.0000 0.57753  0.11506  0.01479  Biso   1.000  H
  C93      1.0000 0.49206  0.68818  0.41278  Biso   1.000  C
  H104     1.0000 0.67367  0.63222  0.18367  Biso   1.000  H
  H105     1.0000 0.61766  0.59839  0.24302  Biso   1.000  H
  H106     1.0000 0.73098  0.53248  0.22118  Biso   1.000  H
  C94      1.0000 0.77599  0.85059  0.07810  Biso   1.000  C
  O9       1.0000 0.34827  0.79646  0.35819  Biso   1.000  O
  O10      1.0000 0.59260  0.94499  0.08739  Biso   1.000  O
  C95      1.0000 0.38191  0.75870  0.41568  Biso   1.000  C
  O11      1.0000 0.53071  0.63974  0.45931  Biso   1.000  O
  C96      1.0000 0.69455  0.94449  0.05569  Biso   1.000  C
  O12      1.0000 0.86010  0.81897  0.04834  Biso   1.000  O
  H107     1.0000 0.32777  0.71925  0.43391  Biso   1.000  H
  H108     1.0000 0.38568  0.81885  0.43972  Biso   1.000  H
  H109     1.0000 0.72174  0.01025  0.06133  Biso   1.000  H
  H110     1.0000 0.68422  0.93891  0.01396  Biso   1.000  H
  Ne1      1.0000 0.46958  0.07665  0.26586  Biso   1.000  Ne
  He1      1.0000 0.55186  0.00914  0.29891  Biso   1.000  He
  He2      1.0000 0.63061  0.03425  0.23927  Biso   1.000  He
  He3      1.0000 0.51876  0.87114  0.24707  Biso   1.000  He
  Ar1      1.0000 0.47701  0.08528  0.27579  Biso   1.000  Ar
  Ne2      1.0000 0.53039  0.92326  0.73413  Biso   1.000  Ne
  He4      1.0000 0.36036  0.96084  0.76697  Biso   1.000  He
  He5      1.0000 0.48322  0.13479  0.75531  Biso   1.000  He
  He6      1.0000 0.46051  0.99624  0.64875  Biso   1.000  He
  Ar2      1.0000 0.52294  0.91461  0.72421  Biso   1.000  Ar
