data_image0
_cell_length_a       12.685
_cell_length_b       17.544
_cell_length_c       29.713
_cell_angle_alpha    90
_cell_angle_beta     104.4
_cell_angle_gamma    90

_symmetry_space_group_name_H-M    "P 1"
_symmetry_int_tables_number       1

loop_
  _symmetry_equiv_pos_as_xyz
  'x, y, z'

loop_
  _atom_site_label
  _atom_site_occupancy
  _atom_site_fract_x
  _atom_site_fract_y
  _atom_site_fract_z
  _atom_site_thermal_displace_type
  _atom_site_B_iso_or_equiv
  _atom_site_type_symbol
  C1       1.0000 0.47356  0.48222  0.44010  Biso   1.000  C
  C2       1.0000 0.50069  0.40817  0.45501  Biso   1.000  C
  C3       1.0000 0.54984  0.52730  0.41801  Biso   1.000  C
  C4       1.0000 0.37307  0.51288  0.44271  Biso   1.000  C
  C5       1.0000 0.42919  0.36611  0.47329  Biso   1.000  C
  C6       1.0000 0.60995  0.37608  0.45001  Biso   1.000  C
  N1       1.0000 0.53530  0.50479  0.36908  Biso   1.000  N
  H1       1.0000 0.62454  0.51813  0.43500  Biso   1.000  H
  H2       1.0000 0.53507  0.58128  0.41971  Biso   1.000  H
  C7       1.0000 0.30122  0.46871  0.46040  Biso   1.000  C
  C8       1.0000 0.34202  0.59462  0.42568  Biso   1.000  C
  C9       1.0000 0.45701  0.28380  0.48708  Biso   1.000  C
  C10      1.0000 0.32828  0.39472  0.47530  Biso   1.000  C
  H3       1.0000 0.66856  0.40361  0.47009  Biso   1.000  H
  H4       1.0000 0.61507  0.32307  0.45838  Biso   1.000  H
  H5       1.0000 0.61455  0.38150  0.41839  Biso   1.000  H
  H6       1.0000 0.47054  0.50262  0.35129  Biso   1.000  H
  C11      1.0000 0.61946  0.48792  0.35171  Biso   1.000  C
  C12      1.0000 0.18692  0.49709  0.45918  Biso   1.000  C
  H7       1.0000 0.36649  0.62967  0.45091  Biso   1.000  H
  H8       1.0000 0.37586  0.60687  0.40108  Biso   1.000  H
  H9       1.0000 0.26449  0.59821  0.41439  Biso   1.000  H
  N2       1.0000 0.41495  0.23398  0.44681  Biso   1.000  N
  H10      1.0000 0.42520  0.26949  0.51231  Biso   1.000  H
  H11      1.0000 0.53548  0.27810  0.49768  Biso   1.000  H
  C13      1.0000 0.25198  0.34388  0.49320  Biso   1.000  C
  O1       1.0000 0.71474  0.48940  0.37277  Biso   1.000  O
  C14      1.0000 0.58944  0.46700  0.29990  Biso   1.000  C
  N3       1.0000 0.10764  0.46859  0.41877  Biso   1.000  N
  H12      1.0000 0.18640  0.55238  0.45869  Biso   1.000  H
  H13      1.0000 0.16699  0.48062  0.48708  Biso   1.000  H
  C15      1.0000 0.38735  0.16211  0.44869  Biso   1.000  C
  H14      1.0000 0.40775  0.25370  0.41971  Biso   1.000  H
  H15      1.0000 0.18755  0.37198  0.49410  Biso   1.000  H
  H16      1.0000 0.23236  0.30079  0.47291  Biso   1.000  H
  H17      1.0000 0.28728  0.32661  0.52388  Biso   1.000  H
  O2       1.0000 0.47591  0.46740  0.28215  Biso   1.000  O
  H18      1.0000 0.61788  0.41678  0.29580  Biso   1.000  H
  H19      1.0000 0.62235  0.50342  0.28291  Biso   1.000  H
  H20      1.0000 0.11557  0.48119  0.39191  Biso   1.000  H
  C16      1.0000 0.02194  0.42362  0.42051  Biso   1.000  C
  C17      1.0000 0.34481  0.12261  0.40341  Biso   1.000  C
  O3       1.0000 0.39899  0.12648  0.48559  Biso   1.000  O
  C18      1.0000 0.43521  0.45708  0.23461  Biso   1.000  C
  O4       1.0000 0.99679  0.40589  0.45651  Biso   1.000  O
  C19      1.0000 0.95470  0.39609  0.37450  Biso   1.000  C
  O5       1.0000 0.32845  0.17710  0.36721  Biso   1.000  O
  H21      1.0000 0.27658  0.09741  0.40320  Biso   1.000  H
  H22      1.0000 0.39634  0.08419  0.39889  Biso   1.000  H
  C20      1.0000 0.32330  0.46170  0.21991  Biso   1.000  C
  C21      1.0000 0.49626  0.44311  0.20341  Biso   1.000  C
  O6       1.0000 0.00390  0.41701  0.33798  Biso   1.000  O
  H23      1.0000 0.88235  0.41809  0.36860  Biso   1.000  H
  H24      1.0000 0.94745  0.34109  0.37520  Biso   1.000  H
  C22      1.0000 0.28490  0.15327  0.32249  Biso   1.000  C
  C23      1.0000 0.27440  0.45098  0.17360  Biso   1.000  C
  H25      1.0000 0.28168  0.47179  0.24090  Biso   1.000  H
  C24      1.0000 0.44482  0.43109  0.15720  Biso   1.000  C
  H26      1.0000 0.57181  0.44169  0.21321  Biso   1.000  H
  C25      1.0000 0.95105  0.40299  0.29219  Biso   1.000  C
  C26      1.0000 0.25687  0.20902  0.28899  Biso   1.000  C
  C27      1.0000 0.26887  0.07849  0.30890  Biso   1.000  C
  C28      1.0000 0.33312  0.43531  0.14111  Biso   1.000  C
  H27      1.0000 0.19900  0.45451  0.16380  Biso   1.000  H
  H28      1.0000 0.48654  0.41997  0.13638  Biso   1.000  H
  C29      1.0000 0.85545  0.36349  0.27871  Biso   1.000  C
  C30      1.0000 0.99976  0.43422  0.25970  Biso   1.000  C
  C31      1.0000 0.21046  0.19169  0.24260  Biso   1.000  C
  H29      1.0000 0.26929  0.25980  0.29771  Biso   1.000  H
  C32      1.0000 0.22399  0.06019  0.26258  Biso   1.000  C
  H30      1.0000 0.28816  0.03979  0.33079  Biso   1.000  H
  C33      1.0000 0.27808  0.42100  0.09100  Biso   1.000  C
  C34      1.0000 0.81040  0.35459  0.23100  Biso   1.000  C
  H31      1.0000 0.82173  0.34319  0.30039  Biso   1.000  H
  C35      1.0000 0.95320  0.42499  0.21251  Biso   1.000  C
  H32      1.0000 0.06428  0.46153  0.26950  Biso   1.000  H
  H33      1.0000 0.19132  0.23039  0.22071  Biso   1.000  H
  C36      1.0000 0.19307  0.11542  0.22940  Biso   1.000  C
  H34      1.0000 0.21465  0.00918  0.25400  Biso   1.000  H
  N4       1.0000 0.18290  0.36890  0.08649  Biso   1.000  N
  H35      1.0000 0.32974  0.39848  0.07561  Biso   1.000  H
  H36      1.0000 0.25368  0.46911  0.07578  Biso   1.000  H
  C37      1.0000 0.85599  0.38492  0.19761  Biso   1.000  C
  H37      1.0000 0.74638  0.32672  0.22151  Biso   1.000  H
  H38      1.0000 0.98698  0.44568  0.19080  Biso   1.000  H
  C38      1.0000 0.14226  0.09091  0.18020  Biso   1.000  C
  C39      1.0000 0.13608  0.34251  0.03819  Biso   1.000  C
  H39      1.0000 0.13083  0.39330  0.09670  Biso   1.000  H
  H40      1.0000 0.20380  0.32798  0.10490  Biso   1.000  H
  C40      1.0000 0.80321  0.37489  0.14611  Biso   1.000  C
  N5       1.0000 0.10779  0.15390  0.14594  Biso   1.000  N
  H41      1.0000 0.07909  0.05979  0.18030  Biso   1.000  H
  H42      1.0000 0.19399  0.05899  0.16981  Biso   1.000  H
  C41      1.0000 0.02069  0.31127  0.03200  Biso   1.000  C
  H43      1.0000 0.13461  0.38458  0.01699  Biso   1.000  H
  H44      1.0000 0.18220  0.30290  0.03061  Biso   1.000  H
  N6       1.0000 0.87582  0.32980  0.12380  Biso   1.000  N
  H45      1.0000 0.78946  0.42442  0.13131  Biso   1.000  H
  H46      1.0000 0.73411  0.34878  0.14211  Biso   1.000  H
  H47      1.0000 0.16471  0.18502  0.14701  Biso   1.000  H
  H48      1.0000 0.05520  0.18137  0.15389  Biso   1.000  H
  C42      1.0000 0.06661  0.12500  0.09771  Biso   1.000  C
  N7       1.0000 0.00569  0.25661  0.06675  Biso   1.000  N
  H49      1.0000 0.99871  0.28728  0.00170  Biso   1.000  H
  H50      1.0000 0.97213  0.35402  0.03200  Biso   1.000  H
  C43      1.0000 0.82469  0.30597  0.07540  Biso   1.000  C
  H51      1.0000 0.89790  0.28790  0.14100  Biso   1.000  H
  H52      1.0000 0.93532  0.35779  0.12391  Biso   1.000  H
  H53      1.0000 0.11348  0.08402  0.09250  Biso   1.000  H
  C44      1.0000 0.06187  0.18519  0.06181  Biso   1.000  C
  H54      1.0000 0.99429  0.10408  0.09441  Biso   1.000  H
  C45      1.0000 0.88887  0.24088  0.06081  Biso   1.000  C
  H55      1.0000 0.75059  0.28950  0.07311  Biso   1.000  H
  H56      1.0000 0.82240  0.34889  0.05469  Biso   1.000  H
  H57      1.0000 0.02696  0.16342  0.03179  Biso   1.000  H
  H58      1.0000 0.13608  0.19767  0.06119  Biso   1.000  H
  H59      1.0000 0.85690  0.22920  0.02839  Biso   1.000  H
  H60      1.0000 0.88146  0.19602  0.07881  Biso   1.000  H
  C46      1.0000 0.52640  0.51778  0.55991  Biso   1.000  C
  C47      1.0000 0.62689  0.48712  0.55731  Biso   1.000  C
  C48      1.0000 0.45003  0.47270  0.58201  Biso   1.000  C
  C49      1.0000 0.49927  0.59183  0.54501  Biso   1.000  C
  C50      1.0000 0.65784  0.40538  0.57430  Biso   1.000  C
  C51      1.0000 0.69863  0.53129  0.53959  Biso   1.000  C
  N8       1.0000 0.46464  0.49521  0.63090  Biso   1.000  N
  H61      1.0000 0.37531  0.48187  0.56499  Biso   1.000  H
  H62      1.0000 0.46489  0.41872  0.58031  Biso   1.000  H
  C52      1.0000 0.38992  0.62392  0.55001  Biso   1.000  C
  C53      1.0000 0.57075  0.63389  0.52669  Biso   1.000  C
  H63      1.0000 0.63347  0.37033  0.54911  Biso   1.000  H
  H64      1.0000 0.62408  0.39313  0.59890  Biso   1.000  H
  H65      1.0000 0.73544  0.40179  0.58559  Biso   1.000  H
  C54      1.0000 0.81294  0.50291  0.54080  Biso   1.000  C
  C55      1.0000 0.67166  0.60528  0.52468  Biso   1.000  C
  H66      1.0000 0.52932  0.49738  0.64869  Biso   1.000  H
  C56      1.0000 0.38041  0.51208  0.64831  Biso   1.000  C
  H67      1.0000 0.33138  0.59639  0.52989  Biso   1.000  H
  H68      1.0000 0.38487  0.67693  0.54160  Biso   1.000  H
  H69      1.0000 0.38538  0.61850  0.58159  Biso   1.000  H
  C57      1.0000 0.54284  0.71620  0.51290  Biso   1.000  C
  N9       1.0000 0.89222  0.53141  0.58121  Biso   1.000  N
  H70      1.0000 0.81354  0.44762  0.54129  Biso   1.000  H
  H71      1.0000 0.83295  0.51938  0.51290  Biso   1.000  H
  C58      1.0000 0.74795  0.65612  0.50678  Biso   1.000  C
  O7       1.0000 0.28512  0.51060  0.62722  Biso   1.000  O
  C59      1.0000 0.41042  0.53300  0.70008  Biso   1.000  C
  N10      1.0000 0.58491  0.76602  0.55317  Biso   1.000  N
  H72      1.0000 0.57476  0.73051  0.48771  Biso   1.000  H
  H73      1.0000 0.46446  0.72190  0.50230  Biso   1.000  H
  H74      1.0000 0.88439  0.51881  0.60811  Biso   1.000  H
  C60      1.0000 0.97794  0.57638  0.57951  Biso   1.000  C
  H75      1.0000 0.81239  0.62802  0.50588  Biso   1.000  H
  H76      1.0000 0.76760  0.69921  0.52711  Biso   1.000  H
  H77      1.0000 0.71266  0.67339  0.47610  Biso   1.000  H
  O8       1.0000 0.52403  0.53260  0.71784  Biso   1.000  O
  H78      1.0000 0.38206  0.58322  0.70418  Biso   1.000  H
  H79      1.0000 0.37753  0.49658  0.71711  Biso   1.000  H
  H80      1.0000 0.59212  0.74630  0.58031  Biso   1.000  H
  C61      1.0000 0.61259  0.83789  0.55129  Biso   1.000  C
  O9       1.0000 0.00317  0.59411  0.54351  Biso   1.000  O
  C62      1.0000 0.04524  0.60391  0.62548  Biso   1.000  C
  C63      1.0000 0.56475  0.54292  0.76541  Biso   1.000  C
  O10      1.0000 0.60095  0.87352  0.51439  Biso   1.000  O
  C64      1.0000 0.65514  0.87739  0.59660  Biso   1.000  C
  O11      1.0000 0.99604  0.58299  0.66200  Biso   1.000  O
  H81      1.0000 0.11758  0.58191  0.63139  Biso   1.000  H
  H82      1.0000 0.05240  0.65891  0.62478  Biso   1.000  H
  C65      1.0000 0.67666  0.53830  0.78010  Biso   1.000  C
  C66      1.0000 0.50362  0.55689  0.79661  Biso   1.000  C
  O12      1.0000 0.67143  0.82290  0.63281  Biso   1.000  O
  H83      1.0000 0.72336  0.90259  0.59678  Biso   1.000  H
  H84      1.0000 0.60352  0.91581  0.60109  Biso   1.000  H
  C67      1.0000 0.04881  0.59701  0.70780  Biso   1.000  C
  H85      1.0000 0.71826  0.52821  0.75908  Biso   1.000  H
  C68      1.0000 0.72554  0.54902  0.82639  Biso   1.000  C
  C69      1.0000 0.55511  0.56891  0.84279  Biso   1.000  C
  H86      1.0000 0.42814  0.55831  0.78681  Biso   1.000  H
  C70      1.0000 0.71504  0.84673  0.67750  Biso   1.000  C
  C71      1.0000 0.00009  0.56578  0.74028  Biso   1.000  C
  C72      1.0000 0.14440  0.63651  0.72128  Biso   1.000  C
  H87      1.0000 0.80093  0.54549  0.83619  Biso   1.000  H
  C73      1.0000 0.66683  0.56469  0.85891  Biso   1.000  C
  H88      1.0000 0.51332  0.58003  0.86360  Biso   1.000  H
  C74      1.0000 0.73107  0.92151  0.69108  Biso   1.000  C
  C75      1.0000 0.74306  0.79098  0.71099  Biso   1.000  C
  H89      1.0000 0.93566  0.53847  0.73048  Biso   1.000  H
  C76      1.0000 0.04676  0.57501  0.78750  Biso   1.000  C
  H90      1.0000 0.17813  0.65681  0.69959  Biso   1.000  H
  C77      1.0000 0.18954  0.64541  0.76898  Biso   1.000  C
  C78      1.0000 0.72178  0.57900  0.90898  Biso   1.000  C
  H91      1.0000 0.71178  0.96021  0.66919  Biso   1.000  H
  C79      1.0000 0.77595  0.93981  0.73740  Biso   1.000  C
  H92      1.0000 0.73067  0.74020  0.70231  Biso   1.000  H
  C80      1.0000 0.78940  0.80831  0.75738  Biso   1.000  C
  C81      1.0000 0.14395  0.61508  0.80238  Biso   1.000  C
  H93      1.0000 0.01296  0.55432  0.80919  Biso   1.000  H
  H94      1.0000 0.25358  0.67328  0.77851  Biso   1.000  H
  N11      1.0000 0.81704  0.63110  0.91350  Biso   1.000  N
  H95      1.0000 0.67022  0.60152  0.92441  Biso   1.000  H
  H96      1.0000 0.74625  0.53089  0.92420  Biso   1.000  H
  C82      1.0000 0.80687  0.88458  0.77058  Biso   1.000  C
  H97      1.0000 0.78520  0.99082  0.74598  Biso   1.000  H
  H98      1.0000 0.80863  0.76961  0.77930  Biso   1.000  H
  C83      1.0000 0.19675  0.62511  0.85391  Biso   1.000  C
  H99      1.0000 0.86911  0.60670  0.90328  Biso   1.000  H
  H100     1.0000 0.79614  0.67202  0.89508  Biso   1.000  H
  C84      1.0000 0.86386  0.65749  0.96180  Biso   1.000  C
  C85      1.0000 0.85760  0.90909  0.81978  Biso   1.000  C
  N12      1.0000 0.12411  0.67020  0.87618  Biso   1.000  N
  H101     1.0000 0.21042  0.57558  0.86871  Biso   1.000  H
  H102     1.0000 0.26585  0.65122  0.85790  Biso   1.000  H
  H103     1.0000 0.86532  0.61542  0.98299  Biso   1.000  H
  H104     1.0000 0.81776  0.69710  0.96940  Biso   1.000  H
  C86      1.0000 0.97924  0.68873  0.96798  Biso   1.000  C
  N13      1.0000 0.89214  0.84610  0.85405  Biso   1.000  N
  H105     1.0000 0.92084  0.94021  0.81968  Biso   1.000  H
  H106     1.0000 0.80597  0.94101  0.83021  Biso   1.000  H
  H107     1.0000 0.10203  0.71210  0.85898  Biso   1.000  H
  H108     1.0000 0.06463  0.64221  0.87611  Biso   1.000  H
  C87      1.0000 0.17525  0.69403  0.92458  Biso   1.000  C
  N14      1.0000 0.99424  0.74339  0.93323  Biso   1.000  N
  H109     1.0000 0.00123  0.71272  0.99828  Biso   1.000  H
  H110     1.0000 0.02781  0.64598  0.96798  Biso   1.000  H
  H111     1.0000 0.83525  0.81498  0.85300  Biso   1.000  H
  H112     1.0000 0.94474  0.81863  0.84609  Biso   1.000  H
  C88      1.0000 0.93334  0.87500  0.90231  Biso   1.000  C
  H113     1.0000 0.24935  0.71050  0.92687  Biso   1.000  H
  H114     1.0000 0.17754  0.65111  0.94529  Biso   1.000  H
  C89      1.0000 0.11099  0.75912  0.93918  Biso   1.000  C
  C90      1.0000 0.93801  0.81481  0.93820  Biso   1.000  C
  H115     1.0000 0.88646  0.91598  0.90749  Biso   1.000  H
  H116     1.0000 0.00564  0.89592  0.90557  Biso   1.000  H
  H117     1.0000 0.14304  0.77080  0.97159  Biso   1.000  H
  H118     1.0000 0.11840  0.80398  0.92118  Biso   1.000  H
  H119     1.0000 0.97290  0.83658  0.96819  Biso   1.000  H
  H120     1.0000 0.86386  0.80233  0.93879  Biso   1.000  H
  C91      1.0000 0.93803  0.68519  0.43819  Biso   1.000  C
  C92      1.0000 0.93336  0.62500  0.40230  Biso   1.000  C
  N15      1.0000 0.99428  0.75661  0.43326  Biso   1.000  N
  H121     1.0000 0.97292  0.66342  0.46818  Biso   1.000  H
  H122     1.0000 0.86388  0.69767  0.43878  Biso   1.000  H
  N16      1.0000 0.89216  0.65390  0.35404  Biso   1.000  N
  H123     1.0000 0.88650  0.58402  0.40751  Biso   1.000  H
  H124     1.0000 0.00569  0.60408  0.40560  Biso   1.000  H
  C93      1.0000 0.97929  0.81127  0.46801  Biso   1.000  C
  C94      1.0000 0.11103  0.74088  0.43920  Biso   1.000  C
  C95      1.0000 0.85764  0.59091  0.31981  Biso   1.000  C
  H125     1.0000 0.83527  0.68502  0.35299  Biso   1.000  H
  H126     1.0000 0.94476  0.68137  0.34608  Biso   1.000  H
  C96      1.0000 0.86388  0.84251  0.46179  Biso   1.000  C
  H127     1.0000 0.00127  0.78728  0.49831  Biso   1.000  H
  H128     1.0000 0.02785  0.85402  0.46801  Biso   1.000  H
  C97      1.0000 0.17529  0.80597  0.42461  Biso   1.000  C
  H129     1.0000 0.14306  0.72920  0.47159  Biso   1.000  H
  H130     1.0000 0.11844  0.69602  0.42120  Biso   1.000  H
  C98      1.0000 0.80691  0.61542  0.27061  Biso   1.000  C
  H131     1.0000 0.92088  0.55979  0.31971  Biso   1.000  H
  H132     1.0000 0.80599  0.55899  0.33020  Biso   1.000  H
  N17      1.0000 0.81706  0.86890  0.41349  Biso   1.000  N
  H133     1.0000 0.86535  0.88458  0.48298  Biso   1.000  H
  H134     1.0000 0.81778  0.80290  0.46940  Biso   1.000  H
  N18      1.0000 0.12415  0.82980  0.37621  Biso   1.000  N
  H135     1.0000 0.24939  0.78950  0.42690  Biso   1.000  H
  H136     1.0000 0.17756  0.84889  0.44528  Biso   1.000  H
  C99      1.0000 0.77597  0.56019  0.23739  Biso   1.000  C
  C100     1.0000 0.78952  0.69169  0.25741  Biso   1.000  C
  H137     1.0000 0.86915  0.89330  0.40331  Biso   1.000  H
  H138     1.0000 0.79618  0.82798  0.39511  Biso   1.000  H
  C101     1.0000 0.72190  0.92100  0.40901  Biso   1.000  C
  H139     1.0000 0.10207  0.78790  0.35901  Biso   1.000  H
  H140     1.0000 0.06465  0.85779  0.37610  Biso   1.000  H
  C102     1.0000 0.19677  0.87489  0.35390  Biso   1.000  C
  C103     1.0000 0.73111  0.57849  0.19111  Biso   1.000  C
  H141     1.0000 0.78532  0.50918  0.24601  Biso   1.000  H
  C104     1.0000 0.74308  0.70902  0.21098  Biso   1.000  C
  H142     1.0000 0.80866  0.73039  0.27930  Biso   1.000  H
  C105     1.0000 0.66685  0.93531  0.35890  Biso   1.000  C
  H143     1.0000 0.67024  0.89848  0.42440  Biso   1.000  H
  H144     1.0000 0.74627  0.96911  0.42419  Biso   1.000  H
  C106     1.0000 0.14399  0.88492  0.30240  Biso   1.000  C
  H145     1.0000 0.21044  0.92442  0.36870  Biso   1.000  H
  H146     1.0000 0.26587  0.84878  0.35789  Biso   1.000  H
  C107     1.0000 0.71506  0.65327  0.17749  Biso   1.000  C
  H147     1.0000 0.71180  0.53979  0.16918  Biso   1.000  H
  H148     1.0000 0.73069  0.75980  0.20230  Biso   1.000  H
  C108     1.0000 0.72558  0.95098  0.32641  Biso   1.000  C
  C109     1.0000 0.55516  0.93109  0.34281  Biso   1.000  C
  C110     1.0000 0.18958  0.85459  0.26901  Biso   1.000  C
  C111     1.0000 0.04678  0.92499  0.28750  Biso   1.000  C
  O13      1.0000 0.67153  0.67710  0.13280  Biso   1.000  O
  C112     1.0000 0.67668  0.96170  0.28010  Biso   1.000  C
  H149     1.0000 0.80098  0.95451  0.33621  Biso   1.000  H
  H150     1.0000 0.51334  0.91997  0.36359  Biso   1.000  H
  C113     1.0000 0.50364  0.94311  0.29660  Biso   1.000  C
  C114     1.0000 0.14452  0.86349  0.22130  Biso   1.000  C
  H151     1.0000 0.25360  0.82672  0.27850  Biso   1.000  H
  C115     1.0000 0.00021  0.93422  0.24031  Biso   1.000  C
  H152     1.0000 0.01300  0.94568  0.30921  Biso   1.000  H
  C116     1.0000 0.65517  0.62261  0.09660  Biso   1.000  C
  C117     1.0000 0.56477  0.95708  0.26540  Biso   1.000  C
  H153     1.0000 0.71830  0.97179  0.25911  Biso   1.000  H
  H154     1.0000 0.42816  0.94169  0.28680  Biso   1.000  H
  H155     1.0000 0.17815  0.84319  0.19959  Biso   1.000  H
  C118     1.0000 0.04891  0.90299  0.20779  Biso   1.000  C
  H156     1.0000 0.93570  0.96153  0.23051  Biso   1.000  H
  H157     1.0000 0.72340  0.59741  0.09680  Biso   1.000  H
  H158     1.0000 0.60364  0.58419  0.10111  Biso   1.000  H
  C119     1.0000 0.61261  0.66211  0.05129  Biso   1.000  C
  O14      1.0000 0.52405  0.96740  0.21783  Biso   1.000  O
  O15      1.0000 0.99606  0.91701  0.16199  Biso   1.000  O
  O16      1.0000 0.60097  0.62648  0.01439  Biso   1.000  O
  N19      1.0000 0.58503  0.73398  0.05320  Biso   1.000  N
  C120     1.0000 0.41046  0.96700  0.20011  Biso   1.000  C
  C121     1.0000 0.04528  0.89609  0.12551  Biso   1.000  C
  H159     1.0000 0.59222  0.75370  0.08030  Biso   1.000  H
  C122     1.0000 0.54287  0.78380  0.01289  Biso   1.000  C
  C123     1.0000 0.38052  0.98792  0.14830  Biso   1.000  C
  H160     1.0000 0.38210  0.91678  0.20421  Biso   1.000  H
  H161     1.0000 0.37755  0.00342  0.21710  Biso   1.000  H
  C124     1.0000 0.97796  0.92362  0.07950  Biso   1.000  C
  H162     1.0000 0.11762  0.91809  0.13141  Biso   1.000  H
  H163     1.0000 0.05252  0.84109  0.12481  Biso   1.000  H
  H164     1.0000 0.46448  0.77810  0.00229  Biso   1.000  H
  C125     1.0000 0.57077  0.86611  0.02669  Biso   1.000  C
  H165     1.0000 0.57468  0.76949  0.98766  Biso   1.000  H
  N20      1.0000 0.46466  0.00479  0.13089  Biso   1.000  N
  O17      1.0000 0.28522  0.98940  0.12721  Biso   1.000  O
  N21      1.0000 0.89232  0.96859  0.08120  Biso   1.000  N
  O18      1.0000 0.00319  0.90589  0.04350  Biso   1.000  O
  C126     1.0000 0.49929  0.90817  0.04500  Biso   1.000  C
  C127     1.0000 0.67170  0.89472  0.02471  Biso   1.000  C
  C128     1.0000 0.45013  0.02730  0.08200  Biso   1.000  C
  H166     1.0000 0.52934  0.00262  0.14868  Biso   1.000  H
  C129     1.0000 0.81296  0.99709  0.04079  Biso   1.000  C
  H167     1.0000 0.88441  0.98119  0.10810  Biso   1.000  H
  C130     1.0000 0.39003  0.87608  0.05000  Biso   1.000  C
  C131     1.0000 0.52642  0.98222  0.05990  Biso   1.000  C
  C132     1.0000 0.74800  0.84388  0.00681  Biso   1.000  C
  C133     1.0000 0.69868  0.96871  0.03961  Biso   1.000  C
  H168     1.0000 0.37543  0.01813  0.06501  Biso   1.000  H
  H169     1.0000 0.46491  0.08128  0.08030  Biso   1.000  H
  H170     1.0000 0.83297  0.98062  0.01289  Biso   1.000  H
  H171     1.0000 0.81358  0.05238  0.04131  Biso   1.000  H
  H172     1.0000 0.33140  0.90361  0.02988  Biso   1.000  H
  H173     1.0000 0.38489  0.82307  0.04159  Biso   1.000  H
  H174     1.0000 0.38541  0.88150  0.08159  Biso   1.000  H
  C134     1.0000 0.62691  0.01288  0.05730  Biso   1.000  C
  H175     1.0000 0.81243  0.87198  0.00591  Biso   1.000  H
  H176     1.0000 0.76762  0.80079  0.02710  Biso   1.000  H
  H177     1.0000 0.71258  0.82661  0.97606  Biso   1.000  H
  C135     1.0000 0.65786  0.09462  0.07429  Biso   1.000  C
  H178     1.0000 0.63349  0.12967  0.04910  Biso   1.000  H
  H179     1.0000 0.62410  0.10687  0.09889  Biso   1.000  H
  H180     1.0000 0.73549  0.09821  0.08562  Biso   1.000  H
  C136     1.0000 0.06182  0.31481  0.56179  Biso   1.000  C
  N22      1.0000 0.00567  0.24339  0.56676  Biso   1.000  N
  C137     1.0000 0.06657  0.37500  0.59768  Biso   1.000  C
  H181     1.0000 0.02693  0.33658  0.53180  Biso   1.000  H
  H182     1.0000 0.13606  0.30233  0.56120  Biso   1.000  H
  C138     1.0000 0.02067  0.18873  0.53201  Biso   1.000  C
  C139     1.0000 0.88883  0.25912  0.56078  Biso   1.000  C
  N23      1.0000 0.10777  0.34610  0.64595  Biso   1.000  N
  H183     1.0000 0.11346  0.41598  0.59250  Biso   1.000  H
  H184     1.0000 0.99425  0.39592  0.59438  Biso   1.000  H
  C140     1.0000 0.13606  0.15749  0.53820  Biso   1.000  C
  H185     1.0000 0.99868  0.21272  0.50171  Biso   1.000  H
  H186     1.0000 0.97203  0.14598  0.53201  Biso   1.000  H
  C141     1.0000 0.82467  0.19403  0.57541  Biso   1.000  C
  H187     1.0000 0.85688  0.27080  0.52840  Biso   1.000  H
  H188     1.0000 0.88142  0.30398  0.57878  Biso   1.000  H
  H189     1.0000 0.16467  0.31498  0.64699  Biso   1.000  H
  H190     1.0000 0.05518  0.31863  0.65390  Biso   1.000  H
  C142     1.0000 0.14224  0.40909  0.68021  Biso   1.000  C
  N24      1.0000 0.18288  0.13110  0.58649  Biso   1.000  N
  H191     1.0000 0.13459  0.11542  0.51700  Biso   1.000  H
  H192     1.0000 0.18216  0.19710  0.53059  Biso   1.000  H
  N25      1.0000 0.87570  0.17020  0.62378  Biso   1.000  N
  H193     1.0000 0.75055  0.21050  0.57308  Biso   1.000  H
  H194     1.0000 0.82238  0.15111  0.55470  Biso   1.000  H
  C143     1.0000 0.19305  0.38458  0.72941  Biso   1.000  C
  H195     1.0000 0.07907  0.44021  0.68031  Biso   1.000  H
  H196     1.0000 0.19395  0.44101  0.66978  Biso   1.000  H
  H197     1.0000 0.13073  0.10670  0.59671  Biso   1.000  H
  H198     1.0000 0.20377  0.17202  0.60491  Biso   1.000  H
  C144     1.0000 0.27806  0.07900  0.59101  Biso   1.000  C
  H199     1.0000 0.89788  0.21210  0.64101  Biso   1.000  H
  H200     1.0000 0.93520  0.14221  0.62388  Biso   1.000  H
  C145     1.0000 0.80316  0.12511  0.64608  Biso   1.000  C
  C146     1.0000 0.21042  0.30831  0.74258  Biso   1.000  C
  C147     1.0000 0.22397  0.43981  0.76259  Biso   1.000  C
  C148     1.0000 0.33300  0.06469  0.64108  Biso   1.000  C
  H201     1.0000 0.32962  0.10152  0.57558  Biso   1.000  H
  H202     1.0000 0.25366  0.03089  0.57579  Biso   1.000  H
  C149     1.0000 0.85594  0.11508  0.69758  Biso   1.000  C
  H203     1.0000 0.78942  0.07558  0.63128  Biso   1.000  H
  H204     1.0000 0.73406  0.15122  0.64209  Biso   1.000  H
  C150     1.0000 0.25685  0.29098  0.78900  Biso   1.000  C
  H205     1.0000 0.19120  0.26961  0.72069  Biso   1.000  H
  C151     1.0000 0.26884  0.42151  0.80891  Biso   1.000  C
  H206     1.0000 0.21463  0.49082  0.75401  Biso   1.000  H
  C152     1.0000 0.27438  0.04902  0.67360  Biso   1.000  C
  C153     1.0000 0.44472  0.06891  0.65720  Biso   1.000  C
  C154     1.0000 0.81038  0.14541  0.73101  Biso   1.000  C
  C155     1.0000 0.95316  0.07501  0.71249  Biso   1.000  C
  C156     1.0000 0.28480  0.34673  0.82249  Biso   1.000  C
  H207     1.0000 0.26924  0.24020  0.79769  Biso   1.000  H
  H208     1.0000 0.28814  0.46021  0.83080  Biso   1.000  H
  C157     1.0000 0.32325  0.03830  0.71989  Biso   1.000  C
  H209     1.0000 0.19898  0.04549  0.66381  Biso   1.000  H
  H210     1.0000 0.48652  0.08003  0.63639  Biso   1.000  H
  C158     1.0000 0.49622  0.05689  0.70338  Biso   1.000  C
  C159     1.0000 0.85541  0.13651  0.77868  Biso   1.000  C
  H211     1.0000 0.74634  0.17328  0.72149  Biso   1.000  H
  C160     1.0000 0.99974  0.06578  0.75971  Biso   1.000  C
  H212     1.0000 0.98696  0.05432  0.69080  Biso   1.000  H
  O19      1.0000 0.32841  0.32290  0.86718  Biso   1.000  O
  C161     1.0000 0.43517  0.04292  0.73459  Biso   1.000  C
  H213     1.0000 0.28166  0.02821  0.74091  Biso   1.000  H
  H214     1.0000 0.57177  0.05831  0.71318  Biso   1.000  H
  H215     1.0000 0.82171  0.15681  0.80040  Biso   1.000  H
  C162     1.0000 0.95103  0.09701  0.79220  Biso   1.000  C
  H216     1.0000 0.06426  0.03847  0.76951  Biso   1.000  H
  C163     1.0000 0.34469  0.37739  0.90339  Biso   1.000  C
  O20      1.0000 0.47580  0.03260  0.78215  Biso   1.000  O
  O21      1.0000 0.00380  0.08299  0.83799  Biso   1.000  O
  H217     1.0000 0.27654  0.40259  0.90318  Biso   1.000  H
  H218     1.0000 0.39632  0.41581  0.89890  Biso   1.000  H
  C164     1.0000 0.38733  0.33789  0.94870  Biso   1.000  C
  C165     1.0000 0.58942  0.03300  0.79991  Biso   1.000  C
  C166     1.0000 0.95465  0.10391  0.87448  Biso   1.000  C
  O22      1.0000 0.39889  0.37352  0.98560  Biso   1.000  O
  N26      1.0000 0.41491  0.26602  0.94678  Biso   1.000  N
  H219     1.0000 0.61786  0.08322  0.79581  Biso   1.000  H
  C167     1.0000 0.61942  0.01208  0.85168  Biso   1.000  C
  H220     1.0000 0.62231  0.99658  0.78288  Biso   1.000  H
  C168     1.0000 0.02189  0.07638  0.92048  Biso   1.000  C
  H221     1.0000 0.88233  0.08191  0.86860  Biso   1.000  H
  H222     1.0000 0.94743  0.15891  0.87521  Biso   1.000  H
  C169     1.0000 0.45699  0.21620  0.98709  Biso   1.000  C
  H223     1.0000 0.40771  0.24630  0.91968  Biso   1.000  H
  O23      1.0000 0.71472  0.01060  0.87277  Biso   1.000  O
  N27      1.0000 0.53520  0.99521  0.86909  Biso   1.000  N
  N28      1.0000 0.10762  0.03141  0.91878  Biso   1.000  N
  O24      1.0000 0.99675  0.09411  0.95648  Biso   1.000  O
  C170     1.0000 0.42909  0.13389  0.97330  Biso   1.000  C
  H224     1.0000 0.53538  0.22190  0.99769  Biso   1.000  H
  H225     1.0000 0.42517  0.23051  0.01232  Biso   1.000  H
  H226     1.0000 0.47052  0.99738  0.85130  Biso   1.000  H
  C171     1.0000 0.54980  0.97270  0.91798  Biso   1.000  C
  C172     1.0000 0.18689  0.00291  0.95919  Biso   1.000  C
  H227     1.0000 0.11552  0.01881  0.89188  Biso   1.000  H
  C173     1.0000 0.50065  0.09183  0.95498  Biso   1.000  C
  C174     1.0000 0.32823  0.10528  0.97528  Biso   1.000  C
  C175     1.0000 0.47352  0.01778  0.94008  Biso   1.000  C
  H228     1.0000 0.62452  0.98187  0.93501  Biso   1.000  H
  H229     1.0000 0.53503  0.91872  0.91968  Biso   1.000  H
  C176     1.0000 0.30120  0.03129  0.96041  Biso   1.000  C
  H230     1.0000 0.16688  0.01938  0.98709  Biso   1.000  H
  H231     1.0000 0.18630  0.94762  0.95870  Biso   1.000  H
  C177     1.0000 0.60991  0.12392  0.94998  Biso   1.000  C
  C178     1.0000 0.25196  0.15612  0.99321  Biso   1.000  C
  C179     1.0000 0.37302  0.98712  0.94268  Biso   1.000  C
  H232     1.0000 0.66854  0.09639  0.97010  Biso   1.000  H
  H233     1.0000 0.61505  0.17693  0.95839  Biso   1.000  H
  H234     1.0000 0.61453  0.11850  0.91840  Biso   1.000  H
  H235     1.0000 0.18751  0.12802  0.99408  Biso   1.000  H
  H236     1.0000 0.23232  0.19921  0.97288  Biso   1.000  H
  H237     1.0000 0.28728  0.17339  0.02392  Biso   1.000  H
  C180     1.0000 0.34200  0.90538  0.92569  Biso   1.000  C
  H238     1.0000 0.36645  0.87033  0.95088  Biso   1.000  H
  H239     1.0000 0.37583  0.89313  0.90109  Biso   1.000  H
  H240     1.0000 0.26439  0.90179  0.91440  Biso   1.000  H
  Ne1      1.0000 0.22779  0.34333  0.28844  Biso   1.000  Ne
  He1      1.0000 0.27502  0.41378  0.33024  Biso   1.000  He
  He2      1.0000 0.20557  0.34136  0.21626  Biso   1.000  He
  He3      1.0000 0.26847  0.41174  0.33821  Biso   1.000  He
  Ar1      1.0000 0.20472  0.37002  0.27217  Biso   1.000  Ar
  Ne2      1.0000 0.77217  0.84333  0.21156  Biso   1.000  Ne
  He4      1.0000 0.73430  0.92085  0.16392  Biso   1.000  He
  He5      1.0000 0.72839  0.83012  0.25632  Biso   1.000  He
  He6      1.0000 0.76451  0.84772  0.13409  Biso   1.000  He
  Ar2      1.0000 0.79527  0.87001  0.22782  Biso   1.000  Ar
  Ne3      1.0000 0.22774  0.15667  0.78843  Biso   1.000  Ne
  He7      1.0000 0.21746  0.16977  0.87240  Biso   1.000  He
  He8      1.0000 0.26982  0.16943  0.74375  Biso   1.000  He
  He9      1.0000 0.26708  0.08278  0.83649  Biso   1.000  He
  Ar3      1.0000 0.20468  0.12999  0.77217  Biso   1.000  Ar
  Ne4      1.0000 0.77213  0.65667  0.71155  Biso   1.000  Ne
  He10     1.0000 0.73618  0.56911  0.66437  Biso   1.000  He
  He11     1.0000 0.48460  0.71124  0.66249  Biso   1.000  He
  He12     1.0000 0.77929  0.66763  0.62876  Biso   1.000  He
  Ar4      1.0000 0.79724  0.63000  0.72063  Biso   1.000  Ar
