data_image0
_cell_length_a       12.609
_cell_length_b       15.892
_cell_length_c       21.112
_cell_angle_alpha    102.52
_cell_angle_beta     93.69
_cell_angle_gamma    96.9

_symmetry_space_group_name_H-M    "P 1"
_symmetry_int_tables_number       1

loop_
  _symmetry_equiv_pos_as_xyz
  'x, y, z'

loop_
  _atom_site_label
  _atom_site_occupancy
  _atom_site_fract_x
  _atom_site_fract_y
  _atom_site_fract_z
  _atom_site_thermal_displace_type
  _atom_site_B_iso_or_equiv
  _atom_site_type_symbol
  C1       1.0000 0.63668  0.58104  0.50750  Biso   1.000  C
  C2       1.0000 0.71225  0.52318  0.48343  Biso   1.000  C
  C3       1.0000 0.67794  0.67473  0.51588  Biso   1.000  C
  H1       1.0000 0.57224  0.56703  0.47753  Biso   1.000  H
  H2       1.0000 0.61687  0.57095  0.54912  Biso   1.000  H
  C4       1.0000 0.68154  0.43116  0.47573  Biso   1.000  C
  H3       1.0000 0.77758  0.53996  0.51272  Biso   1.000  H
  H4       1.0000 0.73009  0.53316  0.44142  Biso   1.000  H
  O1       1.0000 0.60300  0.72902  0.53611  Biso   1.000  O
  H5       1.0000 0.70085  0.68454  0.47480  Biso   1.000  H
  H6       1.0000 0.74024  0.68965  0.54761  Biso   1.000  H
  H7       1.0000 0.73929  0.40076  0.45970  Biso   1.000  H
  H8       1.0000 0.66592  0.41906  0.51701  Biso   1.000  H
  H9       1.0000 0.61899  0.41217  0.44522  Biso   1.000  H
  C5       1.0000 0.62809  0.81713  0.54430  Biso   1.000  C
  C6       1.0000 0.73163  0.85713  0.53781  Biso   1.000  C
  C7       1.0000 0.54744  0.86703  0.55882  Biso   1.000  C
  C8       1.0000 0.75473  0.94595  0.54712  Biso   1.000  C
  H10      1.0000 0.78539  0.82276  0.52709  Biso   1.000  H
  C9       1.0000 0.57014  0.95678  0.56759  Biso   1.000  C
  C10      1.0000 0.43407  0.82688  0.56710  Biso   1.000  C
  C11      1.0000 0.67494  0.99666  0.56262  Biso   1.000  C
  C12      1.0000 0.86848  0.98807  0.54113  Biso   1.000  C
  H11      1.0000 0.51598  0.99103  0.57690  Biso   1.000  H
  C13      1.0000 0.41867  0.82733  0.63772  Biso   1.000  C
  H12      1.0000 0.42080  0.76732  0.54162  Biso   1.000  H
  H13      1.0000 0.38229  0.85904  0.55063  Biso   1.000  H
  O2       1.0000 0.70117  0.08474  0.57261  Biso   1.000  O
  H14      1.0000 0.90176  0.94907  0.50882  Biso   1.000  H
  H15      1.0000 0.86497  0.04163  0.52670  Biso   1.000  H
  C14      1.0000 0.93653  0.00754  0.60653  Biso   1.000  C
  C15      1.0000 0.38707  0.89827  0.67899  Biso   1.000  C
  C16      1.0000 0.43802  0.75626  0.66320  Biso   1.000  C
  C17      1.0000 0.62475  0.13957  0.59522  Biso   1.000  C
  C18      1.0000 0.99386  0.94678  0.62631  Biso   1.000  C
  C19      1.0000 0.93893  0.08725  0.65000  Biso   1.000  C
  O3       1.0000 0.36610  0.96494  0.65048  Biso   1.000  O
  C20      1.0000 0.37866  0.89914  0.74473  Biso   1.000  C
  H16      1.0000 0.45775  0.70737  0.63611  Biso   1.000  H
  C21      1.0000 0.42810  0.75735  0.72860  Biso   1.000  C
  H17      1.0000 0.56456  0.13047  0.56242  Biso   1.000  H
  H18      1.0000 0.59814  0.12557  0.63440  Biso   1.000  H
  C22      1.0000 0.67487  0.23145  0.60960  Biso   1.000  C
  O4       1.0000 0.99338  0.86895  0.58109  Biso   1.000  O
  C23      1.0000 0.04717  0.96476  0.68801  Biso   1.000  C
  H19      1.0000 0.90236  0.12948  0.63772  Biso   1.000  H
  C24      1.0000 0.99472  0.10554  0.71150  Biso   1.000  C
  C25      1.0000 0.33705  0.04239  0.68942  Biso   1.000  C
  C26      1.0000 0.39911  0.82865  0.77003  Biso   1.000  C
  H20      1.0000 0.35910  0.94797  0.77202  Biso   1.000  H
  O5       1.0000 0.44490  0.68725  0.75560  Biso   1.000  O
  H21      1.0000 0.73107  0.24065  0.64503  Biso   1.000  H
  H22      1.0000 0.70815  0.24268  0.57149  Biso   1.000  H
  C27      1.0000 0.59845  0.29475  0.62773  Biso   1.000  C
  C28      1.0000 0.07889  0.82225  0.58572  Biso   1.000  C
  H23      1.0000 0.08353  0.92259  0.70053  Biso   1.000  H
  C29      1.0000 0.04816  0.04306  0.73143  Biso   1.000  C
  O6       1.0000 0.00063  0.18440  0.75487  Biso   1.000  O
  H24      1.0000 0.27548  0.02805  0.71223  Biso   1.000  H
  H25      1.0000 0.39616  0.07104  0.72149  Biso   1.000  H
  C30      1.0000 0.31100  0.10087  0.64663  Biso   1.000  C
  C31      1.0000 0.39386  0.83290  0.84273  Biso   1.000  C
  C32      1.0000 0.45328  0.60494  0.71569  Biso   1.000  C
  H26      1.0000 0.54726  0.29105  0.59059  Biso   1.000  H
  H27      1.0000 0.55910  0.28014  0.66281  Biso   1.000  H
  C33      1.0000 0.65799  0.38927  0.65000  Biso   1.000  C
  H28      1.0000 0.14593  0.86088  0.58981  Biso   1.000  H
  H29      1.0000 0.07623  0.79869  0.62431  Biso   1.000  H
  C34      1.0000 0.07497  0.75002  0.52719  Biso   1.000  C
  C35      1.0000 0.10535  0.05998  0.79970  Biso   1.000  C
  C36      1.0000 0.97998  0.26075  0.73343  Biso   1.000  C
  H30      1.0000 0.37050  0.11035  0.62100  Biso   1.000  H
  H31      1.0000 0.24844  0.07343  0.61691  Biso   1.000  H
  C37      1.0000 0.28837  0.18865  0.68640  Biso   1.000  C
  C38      1.0000 0.50231  0.86801  0.88123  Biso   1.000  C
  H32      1.0000 0.37046  0.77500  0.84892  Biso   1.000  H
  H33      1.0000 0.34137  0.86999  0.85911  Biso   1.000  H
  H34      1.0000 0.40948  0.59766  0.67490  Biso   1.000  H
  H35      1.0000 0.52720  0.60315  0.70580  Biso   1.000  H
  C39      1.0000 0.41902  0.53186  0.74629  Biso   1.000  C
  H36      1.0000 0.70048  0.40256  0.61642  Biso   1.000  H
  H37      1.0000 0.60648  0.42919  0.65833  Biso   1.000  H
  H38      1.0000 0.70390  0.39430  0.68923  Biso   1.000  H
  H39      1.0000 0.12207  0.71302  0.54230  Biso   1.000  H
  H40      1.0000 0.11597  0.77791  0.49829  Biso   1.000  H
  C40      1.0000 0.01887  0.70426  0.49410  Biso   1.000  C
  H41      1.0000 0.13584  0.12089  0.81310  Biso   1.000  H
  H42      1.0000 0.16386  0.02546  0.79873  Biso   1.000  H
  C41      1.0000 0.03187  0.03838  0.84961  Biso   1.000  C
  H43      1.0000 0.90439  0.25575  0.71900  Biso   1.000  H
  H44      1.0000 0.02080  0.26625  0.69673  Biso   1.000  H
  C42      1.0000 0.00942  0.33739  0.78562  Biso   1.000  C
  H45      1.0000 0.35145  0.21556  0.71583  Biso   1.000  H
  H46      1.0000 0.23014  0.17813  0.71281  Biso   1.000  H
  C43      1.0000 0.25978  0.25015  0.64751  Biso   1.000  C
  C44      1.0000 0.53011  0.95766  0.90731  Biso   1.000  C
  C45      1.0000 0.57671  0.81446  0.89113  Biso   1.000  C
  H47      1.0000 0.41889  0.47736  0.71491  Biso   1.000  H
  H48      1.0000 0.34605  0.53506  0.75789  Biso   1.000  H
  C46      1.0000 0.48295  0.53259  0.79980  Biso   1.000  C
  H49      1.0000 0.97770  0.67484  0.52212  Biso   1.000  H
  H50      1.0000 0.97104  0.74015  0.47821  Biso   1.000  H
  C47      1.0000 0.02446  0.63113  0.43382  Biso   1.000  C
  C48      1.0000 0.98114  0.10066  0.88742  Biso   1.000  C
  C49      1.0000 0.01383  0.95459  0.85882  Biso   1.000  C
  H51      1.0000 0.95534  0.33411  0.81603  Biso   1.000  H
  H52      1.0000 0.99744  0.38609  0.76642  Biso   1.000  H
  C50      1.0000 0.10975  0.36459  0.82543  Biso   1.000  C
  H53      1.0000 0.19579  0.22526  0.61930  Biso   1.000  H
  H54      1.0000 0.24758  0.30328  0.67602  Biso   1.000  H
  H55      1.0000 0.31736  0.26216  0.62183  Biso   1.000  H
  C51      1.0000 0.62978  0.98876  0.94220  Biso   1.000  C
  O7       1.0000 0.45437  0.00856  0.89537  Biso   1.000  O
  H56      1.0000 0.55927  0.75488  0.87480  Biso   1.000  H
  C52      1.0000 0.67629  0.84622  0.92422  Biso   1.000  C
  H57      1.0000 0.55708  0.53486  0.78971  Biso   1.000  H
  H58      1.0000 0.47711  0.58358  0.83362  Biso   1.000  H
  C53      1.0000 0.44986  0.45107  0.82363  Biso   1.000  C
  H59      1.0000 0.95485  0.61473  0.40999  Biso   1.000  H
  H60      1.0000 0.07483  0.65132  0.40628  Biso   1.000  H
  H61      1.0000 0.04714  0.58172  0.44732  Biso   1.000  H
  H62      1.0000 0.99447  0.15777  0.88304  Biso   1.000  H
  C54      1.0000 0.91088  0.08097  0.93211  Biso   1.000  C
  C55      1.0000 0.94535  0.93500  0.90511  Biso   1.000  C
  O8       1.0000 0.06489  0.89448  0.82022  Biso   1.000  O
  H63      1.0000 0.12650  0.31968  0.84751  Biso   1.000  H
  H64      1.0000 0.16733  0.37615  0.79892  Biso   1.000  H
  C56      1.0000 0.09676  0.44258  0.87202  Biso   1.000  C
  C57      1.0000 0.70447  0.93372  0.95092  Biso   1.000  C
  H65      1.0000 0.64698  0.04809  0.96023  Biso   1.000  H
  C58      1.0000 0.47611  0.10039  0.92173  Biso   1.000  C
  O9       1.0000 0.75315  0.79321  0.93401  Biso   1.000  O
  H66      1.0000 0.40906  0.46499  0.86042  Biso   1.000  H
  H67      1.0000 0.40685  0.40877  0.78942  Biso   1.000  H
  H68      1.0000 0.51281  0.42787  0.83620  Biso   1.000  H
  C59      1.0000 0.89224  0.99756  0.94113  Biso   1.000  C
  O10      1.0000 0.85789  0.14167  0.96890  Biso   1.000  O
  H69      1.0000 0.93547  0.87868  0.91169  Biso   1.000  H
  C60      1.0000 0.05548  0.80778  0.82821  Biso   1.000  C
  H70      1.0000 0.03669  0.43098  0.89610  Biso   1.000  H
  H71      1.0000 0.16051  0.46136  0.90141  Biso   1.000  H
  H72      1.0000 0.08414  0.48736  0.84951  Biso   1.000  H
  C61      1.0000 0.81350  0.97140  0.98684  Biso   1.000  C
  H73      1.0000 0.48558  0.11207  0.96890  Biso   1.000  H
  H74      1.0000 0.54151  0.12416  0.90643  Biso   1.000  H
  C62      1.0000 0.38454  0.14129  0.90063  Biso   1.000  C
  C63      1.0000 0.73230  0.70269  0.90823  Biso   1.000  C
  C64      1.0000 0.88153  0.23027  0.96739  Biso   1.000  C
  H75      1.0000 0.98060  0.78540  0.82860  Biso   1.000  H
  H76      1.0000 0.09328  0.80608  0.86929  Biso   1.000  H
  C65      1.0000 0.10252  0.75285  0.77300  Biso   1.000  C
  H77      1.0000 0.84083  0.92862  0.00760  Biso   1.000  H
  H78      1.0000 0.80607  0.02187  0.02061  Biso   1.000  H
  H79      1.0000 0.37587  0.12868  0.85331  Biso   1.000  H
  H80      1.0000 0.31957  0.11559  0.91520  Biso   1.000  H
  C66      1.0000 0.39791  0.23720  0.92602  Biso   1.000  C
  H81      1.0000 0.67026  0.67846  0.92660  Biso   1.000  H
  H82      1.0000 0.71611  0.69137  0.86140  Biso   1.000  H
  C67      1.0000 0.82348  0.66118  0.92290  Biso   1.000  C
  H83      1.0000 0.95683  0.25053  0.98114  Biso   1.000  H
  H84      1.0000 0.86693  0.23747  0.92334  Biso   1.000  H
  C68      1.0000 0.81224  0.28327  0.01310  Biso   1.000  C
  H85      1.0000 0.17672  0.77748  0.77271  Biso   1.000  H
  H86      1.0000 0.06448  0.75629  0.73240  Biso   1.000  H
  C69      1.0000 0.09949  0.66035  0.77480  Biso   1.000  C
  H87      1.0000 0.40965  0.24980  0.97309  Biso   1.000  H
  H88      1.0000 0.46148  0.26298  0.91003  Biso   1.000  H
  C70      1.0000 0.30256  0.27998  0.90692  Biso   1.000  C
  H89      1.0000 0.83195  0.66648  0.96973  Biso   1.000  H
  H90      1.0000 0.88689  0.69357  0.91159  Biso   1.000  H
  C71      1.0000 0.82141  0.57077  0.89161  Biso   1.000  C
  H91      1.0000 0.85763  0.33779  0.03240  Biso   1.000  H
  H92      1.0000 0.80281  0.25317  0.04809  Biso   1.000  H
  C72      1.0000 0.72996  0.30239  0.00131  Biso   1.000  C
  H93      1.0000 0.14565  0.65621  0.81223  Biso   1.000  H
  H94      1.0000 0.02688  0.63744  0.78080  Biso   1.000  H
  C73      1.0000 0.13420  0.60396  0.71393  Biso   1.000  C
  H95      1.0000 0.23858  0.25331  0.92100  Biso   1.000  H
  H96      1.0000 0.31454  0.34092  0.92733  Biso   1.000  H
  H97      1.0000 0.29439  0.27269  0.86042  Biso   1.000  H
  H98      1.0000 0.89279  0.55425  0.89420  Biso   1.000  H
  H99      1.0000 0.79435  0.56010  0.84610  Biso   1.000  H
  C74      1.0000 0.75116  0.52230  0.92602  Biso   1.000  C
  H100     1.0000 0.73696  0.32857  0.96403  Biso   1.000  H
  H101     1.0000 0.68213  0.24826  0.98601  Biso   1.000  H
  C75      1.0000 0.66945  0.36068  0.04751  Biso   1.000  C
  H102     1.0000 0.13046  0.54494  0.71871  Biso   1.000  H
  H103     1.0000 0.08734  0.60594  0.67670  Biso   1.000  H
  H104     1.0000 0.20649  0.62527  0.70789  Biso   1.000  H
  H105     1.0000 0.74651  0.46128  0.90682  Biso   1.000  H
  H106     1.0000 0.77909  0.53341  0.97090  Biso   1.000  H
  H107     1.0000 0.68107  0.53986  0.92353  Biso   1.000  H
  H108     1.0000 0.67025  0.41550  0.03533  Biso   1.000  H
  H109     1.0000 0.59663  0.33367  0.04561  Biso   1.000  H
  H110     1.0000 0.70284  0.36995  0.09112  Biso   1.000  H
  C76      1.0000 0.36325  0.41906  0.49249  Biso   1.000  C
  C77      1.0000 0.32199  0.32537  0.48411  Biso   1.000  C
  H111     1.0000 0.42769  0.43302  0.52251  Biso   1.000  H
  H112     1.0000 0.38306  0.42917  0.45092  Biso   1.000  H
  C78      1.0000 0.28769  0.47694  0.51662  Biso   1.000  C
  O11      1.0000 0.39700  0.27102  0.46389  Biso   1.000  O
  H113     1.0000 0.29908  0.31556  0.52519  Biso   1.000  H
  H114     1.0000 0.25969  0.31045  0.45239  Biso   1.000  H
  H115     1.0000 0.22235  0.46015  0.48733  Biso   1.000  H
  H116     1.0000 0.26993  0.46696  0.55862  Biso   1.000  H
  C79      1.0000 0.31840  0.56895  0.52432  Biso   1.000  C
  C80      1.0000 0.37192  0.18297  0.45570  Biso   1.000  C
  H117     1.0000 0.26072  0.59934  0.54030  Biso   1.000  H
  H118     1.0000 0.33409  0.58104  0.48299  Biso   1.000  H
  H119     1.0000 0.38095  0.58795  0.55482  Biso   1.000  H
  C81      1.0000 0.45249  0.13302  0.44123  Biso   1.000  C
  C82      1.0000 0.26829  0.14292  0.46223  Biso   1.000  C
  C83      1.0000 0.56586  0.17322  0.43289  Biso   1.000  C
  C84      1.0000 0.42979  0.04332  0.43241  Biso   1.000  C
  C85      1.0000 0.24521  0.05416  0.45292  Biso   1.000  C
  H120     1.0000 0.21462  0.17734  0.47290  Biso   1.000  H
  C86      1.0000 0.58126  0.17272  0.36233  Biso   1.000  C
  H121     1.0000 0.57921  0.23273  0.45843  Biso   1.000  H
  H122     1.0000 0.61765  0.14107  0.44941  Biso   1.000  H
  C87      1.0000 0.32500  0.00345  0.43742  Biso   1.000  C
  H123     1.0000 0.48395  0.00907  0.42310  Biso   1.000  H
  C88      1.0000 0.13154  0.01205  0.45892  Biso   1.000  C
  C89      1.0000 0.61286  0.10183  0.32100  Biso   1.000  C
  C90      1.0000 0.56199  0.24384  0.33679  Biso   1.000  C
  O12      1.0000 0.29877  0.91537  0.42743  Biso   1.000  O
  C91      1.0000 0.06340  0.99251  0.39352  Biso   1.000  C
  H124     1.0000 0.09818  0.05105  0.49123  Biso   1.000  H
  H125     1.0000 0.13504  0.95847  0.47329  Biso   1.000  H
  C92      1.0000 0.62127  0.10091  0.25531  Biso   1.000  C
  O13      1.0000 0.63391  0.03511  0.34956  Biso   1.000  O
  C93      1.0000 0.57191  0.24274  0.27139  Biso   1.000  C
  H126     1.0000 0.54218  0.29273  0.36389  Biso   1.000  H
  C94      1.0000 0.37519  0.86054  0.40482  Biso   1.000  C
  C95      1.0000 0.00607  0.05331  0.37368  Biso   1.000  C
  C96      1.0000 0.06100  0.91285  0.35000  Biso   1.000  C
  C97      1.0000 0.60090  0.17140  0.23002  Biso   1.000  C
  H127     1.0000 0.64092  0.05214  0.22802  Biso   1.000  H
  C98      1.0000 0.66289  0.95773  0.31062  Biso   1.000  C
  O14      1.0000 0.55510  0.31279  0.24439  Biso   1.000  O
  H128     1.0000 0.43538  0.86965  0.43762  Biso   1.000  H
  H129     1.0000 0.40179  0.87453  0.36559  Biso   1.000  H
  C99      1.0000 0.32506  0.76865  0.39040  Biso   1.000  C
  C100     1.0000 0.95284  0.03534  0.31199  Biso   1.000  C
  O15      1.0000 0.00663  0.13114  0.41891  Biso   1.000  O
  C101     1.0000 0.00521  0.89456  0.28850  Biso   1.000  C
  H130     1.0000 0.09757  0.87063  0.36233  Biso   1.000  H
  C102     1.0000 0.60607  0.16721  0.15731  Biso   1.000  C
  H131     1.0000 0.72446  0.97206  0.28782  Biso   1.000  H
  H132     1.0000 0.60377  0.92906  0.27851  Biso   1.000  H
  C103     1.0000 0.68902  0.89924  0.35341  Biso   1.000  C
  C104     1.0000 0.54664  0.39510  0.28431  Biso   1.000  C
  H133     1.0000 0.26895  0.75946  0.35502  Biso   1.000  H
  H134     1.0000 0.29178  0.75742  0.42851  Biso   1.000  H
  C105     1.0000 0.40149  0.70537  0.37232  Biso   1.000  C
  C106     1.0000 0.95186  0.95706  0.26861  Biso   1.000  C
  H135     1.0000 0.91641  0.07752  0.29951  Biso   1.000  H
  C107     1.0000 0.92113  0.17787  0.41433  Biso   1.000  C
  O16      1.0000 0.99931  0.81572  0.24517  Biso   1.000  O
  C108     1.0000 0.49771  0.13211  0.11881  Biso   1.000  C
  H136     1.0000 0.62948  0.22511  0.15112  Biso   1.000  H
  H137     1.0000 0.65856  0.13011  0.14089  Biso   1.000  H
  H138     1.0000 0.62951  0.88974  0.37899  Biso   1.000  H
  H139     1.0000 0.75148  0.92660  0.38309  Biso   1.000  H
  C109     1.0000 0.71156  0.81145  0.31359  Biso   1.000  C
  H140     1.0000 0.59046  0.40243  0.32510  Biso   1.000  H
  H141     1.0000 0.47281  0.39695  0.29420  Biso   1.000  H
  C110     1.0000 0.58099  0.46824  0.25370  Biso   1.000  C
  H142     1.0000 0.45268  0.70905  0.40940  Biso   1.000  H
  H143     1.0000 0.44090  0.71990  0.33718  Biso   1.000  H
  C111     1.0000 0.34202  0.61083  0.35000  Biso   1.000  C
  C112     1.0000 0.89466  0.94012  0.20029  Biso   1.000  C
  H144     1.0000 0.85400  0.13922  0.41018  Biso   1.000  H
  H145     1.0000 0.92371  0.20143  0.37573  Biso   1.000  H
  C113     1.0000 0.92504  0.25007  0.47280  Biso   1.000  C
  C114     1.0000 0.02003  0.73930  0.26662  Biso   1.000  C
  C115     1.0000 0.42329  0.18559  0.10892  Biso   1.000  C
  C116     1.0000 0.46989  0.04237  0.09269  Biso   1.000  C
  H146     1.0000 0.64849  0.78456  0.28421  Biso   1.000  H
  H147     1.0000 0.76978  0.82190  0.28718  Biso   1.000  H
  C117     1.0000 0.74015  0.74995  0.35248  Biso   1.000  C
  H148     1.0000 0.58104  0.52274  0.28509  Biso   1.000  H
  H149     1.0000 0.65388  0.46504  0.24210  Biso   1.000  H
  C118     1.0000 0.51698  0.46751  0.20019  Biso   1.000  C
  H150     1.0000 0.29954  0.59755  0.38362  Biso   1.000  H
  H151     1.0000 0.39354  0.57092  0.34171  Biso   1.000  H
  H152     1.0000 0.29612  0.60582  0.31082  Biso   1.000  H
  C119     1.0000 0.96814  0.96172  0.15039  Biso   1.000  C
  H153     1.0000 0.86409  0.87921  0.18689  Biso   1.000  H
  H154     1.0000 0.83615  0.97459  0.20131  Biso   1.000  H
  H155     1.0000 0.87793  0.28702  0.45770  Biso   1.000  H
  H156     1.0000 0.88403  0.22212  0.50170  Biso   1.000  H
  C120     1.0000 0.98106  0.29584  0.50589  Biso   1.000  C
  H157     1.0000 0.97914  0.73386  0.30331  Biso   1.000  H
  C121     1.0000 0.99051  0.66272  0.21442  Biso   1.000  C
  H158     1.0000 0.09562  0.74435  0.28099  Biso   1.000  H
  C122     1.0000 0.32372  0.15388  0.07578  Biso   1.000  C
  H159     1.0000 0.44066  0.24522  0.12519  Biso   1.000  H
  C123     1.0000 0.37022  0.01128  0.05780  Biso   1.000  C
  O17      1.0000 0.54555  0.99148  0.10463  Biso   1.000  O
  H160     1.0000 0.80422  0.77484  0.38070  Biso   1.000  H
  H161     1.0000 0.75236  0.69684  0.32402  Biso   1.000  H
  H162     1.0000 0.68258  0.73796  0.37821  Biso   1.000  H
  H163     1.0000 0.44285  0.46524  0.21028  Biso   1.000  H
  H164     1.0000 0.52291  0.41653  0.16642  Biso   1.000  H
  C124     1.0000 0.55008  0.54905  0.17641  Biso   1.000  C
  C125     1.0000 0.98610  0.04551  0.14118  Biso   1.000  C
  C126     1.0000 0.01879  0.89939  0.11262  Biso   1.000  C
  H165     1.0000 0.02232  0.32527  0.47792  Biso   1.000  H
  H166     1.0000 0.02890  0.25997  0.52183  Biso   1.000  H
  C127     1.0000 0.97548  0.36898  0.56623  Biso   1.000  C
  C128     1.0000 0.89027  0.63552  0.17461  Biso   1.000  C
  H167     1.0000 0.04460  0.66600  0.18401  Biso   1.000  H
  H168     1.0000 0.00250  0.61402  0.23362  Biso   1.000  H
  O18      1.0000 0.24678  0.20689  0.06598  Biso   1.000  O
  C129     1.0000 0.29546  0.06640  0.04912  Biso   1.000  C
  H169     1.0000 0.35296  0.95202  0.03981  Biso   1.000  H
  C130     1.0000 0.52391  0.89972  0.07831  Biso   1.000  C
  H170     1.0000 0.59088  0.53512  0.13962  Biso   1.000  H
  H171     1.0000 0.59308  0.59135  0.21062  Biso   1.000  H
  H172     1.0000 0.48720  0.57223  0.16379  Biso   1.000  H
  C131     1.0000 0.05458  0.06510  0.09488  Biso   1.000  C
  O19      1.0000 0.93513  0.10563  0.17982  Biso   1.000  O
  C132     1.0000 0.08913  0.91913  0.06788  Biso   1.000  C
  H173     1.0000 0.00555  0.84234  0.11701  Biso   1.000  H
  H174     1.0000 0.04508  0.38537  0.59001  Biso   1.000  H
  H175     1.0000 0.92510  0.34878  0.59371  Biso   1.000  H
  H176     1.0000 0.95279  0.41833  0.55273  Biso   1.000  H
  H177     1.0000 0.87343  0.68042  0.15248  Biso   1.000  H
  H178     1.0000 0.83268  0.62390  0.20112  Biso   1.000  H
  C133     1.0000 0.90326  0.55753  0.12802  Biso   1.000  C
  C134     1.0000 0.26771  0.29742  0.09181  Biso   1.000  C
  C135     1.0000 0.18652  0.02872  0.01321  Biso   1.000  C
  H179     1.0000 0.51435  0.88803  0.03109  Biso   1.000  H
  H180     1.0000 0.45850  0.87589  0.09362  Biso   1.000  H
  C136     1.0000 0.61540  0.85882  0.09941  Biso   1.000  C
  C137     1.0000 0.10769  0.00249  0.05892  Biso   1.000  C
  H181     1.0000 0.06446  0.12142  0.08830  Biso   1.000  H
  C138     1.0000 0.94453  0.19232  0.17178  Biso   1.000  C
  O20      1.0000 0.14212  0.85843  0.03109  Biso   1.000  O
  H182     1.0000 0.96324  0.56912  0.10390  Biso   1.000  H
  H183     1.0000 0.83942  0.53874  0.09859  Biso   1.000  H
  H184     1.0000 0.91587  0.51274  0.15049  Biso   1.000  H
  H185     1.0000 0.32966  0.32157  0.07339  Biso   1.000  H
  H186     1.0000 0.28390  0.30872  0.13860  Biso   1.000  H
  C139     1.0000 0.17653  0.33892  0.07710  Biso   1.000  C
  H187     1.0000 0.19394  0.97823  0.97939  Biso   1.000  H
  H188     1.0000 0.15910  0.07148  0.99240  Biso   1.000  H
  H189     1.0000 0.62406  0.87142  0.14669  Biso   1.000  H
  H190     1.0000 0.68036  0.88451  0.08479  Biso   1.000  H
  C140     1.0000 0.60210  0.76291  0.07402  Biso   1.000  C
  H191     1.0000 0.01941  0.21470  0.17139  Biso   1.000  H
  H192     1.0000 0.90673  0.19402  0.13070  Biso   1.000  H
  C141     1.0000 0.89741  0.24725  0.22700  Biso   1.000  C
  C142     1.0000 0.11840  0.76983  0.03260  Biso   1.000  C
  H193     1.0000 0.16799  0.33363  0.03031  Biso   1.000  H
  H194     1.0000 0.11312  0.30653  0.08840  Biso   1.000  H
  C143     1.0000 0.17860  0.42933  0.10838  Biso   1.000  C
  H195     1.0000 0.59028  0.75030  0.02690  Biso   1.000  H
  H196     1.0000 0.53846  0.73713  0.09001  Biso   1.000  H
  C144     1.0000 0.69737  0.72012  0.09308  Biso   1.000  C
  H197     1.0000 0.82321  0.22262  0.22729  Biso   1.000  H
  H198     1.0000 0.93553  0.24381  0.26759  Biso   1.000  H
  C145     1.0000 0.90052  0.33975  0.22519  Biso   1.000  C
  C146     1.0000 0.18769  0.71683  0.98689  Biso   1.000  C
  H199     1.0000 0.04311  0.74959  0.01891  Biso   1.000  H
  H200     1.0000 0.13299  0.76258  0.07671  Biso   1.000  H
  H201     1.0000 0.10721  0.44579  0.10580  Biso   1.000  H
  H202     1.0000 0.20558  0.44000  0.15390  Biso   1.000  H
  C147     1.0000 0.24878  0.47781  0.07402  Biso   1.000  C
  H203     1.0000 0.76135  0.74679  0.07900  Biso   1.000  H
  H204     1.0000 0.68539  0.65919  0.07271  Biso   1.000  H
  H205     1.0000 0.70555  0.72742  0.13962  Biso   1.000  H
  H206     1.0000 0.85429  0.34390  0.18782  Biso   1.000  H
  H207     1.0000 0.97312  0.36259  0.21920  Biso   1.000  H
  C148     1.0000 0.86582  0.39615  0.28611  Biso   1.000  C
  H208     1.0000 0.14230  0.66231  0.96759  Biso   1.000  H
  H209     1.0000 0.19712  0.74693  0.95190  Biso   1.000  H
  C149     1.0000 0.27005  0.69770  0.99868  Biso   1.000  C
  H210     1.0000 0.25350  0.53883  0.09323  Biso   1.000  H
  H211     1.0000 0.22092  0.46669  0.02909  Biso   1.000  H
  H212     1.0000 0.31886  0.46019  0.07651  Biso   1.000  H
  H213     1.0000 0.86946  0.45510  0.28129  Biso   1.000  H
  H214     1.0000 0.91259  0.39416  0.32329  Biso   1.000  H
  H215     1.0000 0.79352  0.37483  0.29210  Biso   1.000  H
  C150     1.0000 0.33048  0.63942  0.95249  Biso   1.000  C
  H216     1.0000 0.26296  0.67148  0.03601  Biso   1.000  H
  H217     1.0000 0.31780  0.75177  0.01399  Biso   1.000  H
  H218     1.0000 0.32969  0.58462  0.96472  Biso   1.000  H
  H219     1.0000 0.40330  0.66642  0.95439  Biso   1.000  H
  H220     1.0000 0.29709  0.63010  0.90892  Biso   1.000  H
  Ne1      1.0000 0.27778  0.06343  0.25254  Biso   1.000  Ne
  He1      1.0000 0.20591  0.33280  0.29717  Biso   1.000  He
  He2      1.0000 0.36237  0.67738  0.18280  Biso   1.000  He
  Ar1      1.0000 0.28193  0.06412  0.25234  Biso   1.000  Ar
  Ne2      1.0000 0.72218  0.93667  0.74747  Biso   1.000  Ne
  He3      1.0000 0.64849  0.31697  0.81472  Biso   1.000  He
  He4      1.0000 0.79406  0.66216  0.70099  Biso   1.000  He
  Ar2      1.0000 0.71813  0.93652  0.74772  Biso   1.000  Ar
