data_image0
_cell_length_a       18.509
_cell_length_b       11.109
_cell_length_c       22.85
_cell_angle_alpha    90
_cell_angle_beta     90
_cell_angle_gamma    90

_symmetry_space_group_name_H-M    "P 1"
_symmetry_int_tables_number       1

loop_
  _symmetry_equiv_pos_as_xyz
  'x, y, z'

loop_
  _atom_site_label
  _atom_site_occupancy
  _atom_site_fract_x
  _atom_site_fract_y
  _atom_site_fract_z
  _atom_site_thermal_displace_type
  _atom_site_B_iso_or_equiv
  _atom_site_type_symbol
  S1       1.0000 0.52126  0.42947  0.36210  Biso   1.000  S
  C1       1.0000 0.48490  0.33684  0.30621  Biso   1.000  C
  C2       1.0000 0.46761  0.38365  0.42451  Biso   1.000  C
  C3       1.0000 0.39851  0.38086  0.28989  Biso   1.000  C
  H1       1.0000 0.48474  0.25358  0.31908  Biso   1.000  H
  H2       1.0000 0.51483  0.34252  0.27138  Biso   1.000  H
  H3       1.0000 0.41742  0.37582  0.41291  Biso   1.000  H
  H4       1.0000 0.47053  0.44459  0.45479  Biso   1.000  H
  C4       1.0000 0.49473  0.26501  0.44810  Biso   1.000  C
  O1       1.0000 0.41391  0.47700  0.26888  Biso   1.000  O
  H5       1.0000 0.36863  0.38860  0.32451  Biso   1.000  H
  H6       1.0000 0.37538  0.32766  0.26188  Biso   1.000  H
  O2       1.0000 0.45826  0.23954  0.50149  Biso   1.000  O
  H7       1.0000 0.54644  0.26933  0.45479  Biso   1.000  H
  H8       1.0000 0.48549  0.20137  0.41991  Biso   1.000  H
  C5       1.0000 0.33503  0.51715  0.25759  Biso   1.000  C
  C6       1.0000 0.48349  0.13476  0.52832  Biso   1.000  C
  C7       1.0000 0.28030  0.53587  0.30359  Biso   1.000  C
  H9       1.0000 0.31471  0.45873  0.23081  Biso   1.000  H
  H10      1.0000 0.33811  0.59249  0.23619  Biso   1.000  H
  C8       1.0000 0.54600  0.13719  0.56048  Biso   1.000  C
  C9       1.0000 0.44319  0.02872  0.52101  Biso   1.000  C
  O3       1.0000 0.30909  0.62004  0.34499  Biso   1.000  O
  H11      1.0000 0.26938  0.46017  0.32280  Biso   1.000  H
  H12      1.0000 0.23621  0.56720  0.28661  Biso   1.000  H
  C10      1.0000 0.58971  0.25115  0.57042  Biso   1.000  C
  C11      1.0000 0.56913  0.03016  0.58591  Biso   1.000  C
  C12      1.0000 0.37593  0.02466  0.48442  Biso   1.000  C
  C13      1.0000 0.46934  0.92484  0.54678  Biso   1.000  C
  C14      1.0000 0.27511  0.61167  0.40031  Biso   1.000  C
  C15      1.0000 0.54914  0.36322  0.59002  Biso   1.000  C
  H13      1.0000 0.62640  0.23368  0.59952  Biso   1.000  H
  H14      1.0000 0.61451  0.27023  0.53418  Biso   1.000  H
  H15      1.0000 0.61100  0.02980  0.60840  Biso   1.000  H
  C16      1.0000 0.53153  0.92547  0.57851  Biso   1.000  C
  C17      1.0000 0.31682  0.11522  0.49558  Biso   1.000  C
  H16      1.0000 0.39040  0.03277  0.44381  Biso   1.000  H
  H17      1.0000 0.35512  0.94509  0.48871  Biso   1.000  H
  H18      1.0000 0.44389  0.85318  0.54241  Biso   1.000  H
  C18      1.0000 0.31450  0.69034  0.44210  Biso   1.000  C
  H19      1.0000 0.22508  0.63705  0.39729  Biso   1.000  H
  H20      1.0000 0.27608  0.52894  0.41392  Biso   1.000  H
  C19      1.0000 0.56232  0.47304  0.56171  Biso   1.000  C
  C20      1.0000 0.50122  0.36232  0.63681  Biso   1.000  C
  H21      1.0000 0.54844  0.85453  0.59519  Biso   1.000  H
  C21      1.0000 0.28748  0.18057  0.44972  Biso   1.000  C
  C22      1.0000 0.28840  0.13314  0.55098  Biso   1.000  C
  S2       1.0000 0.28127  0.68233  0.51615  Biso   1.000  S
  H22      1.0000 0.36512  0.66811  0.44188  Biso   1.000  H
  H23      1.0000 0.31098  0.77298  0.42871  Biso   1.000  H
  C23      1.0000 0.52769  0.57521  0.58109  Biso   1.000  C
  H24      1.0000 0.59409  0.47700  0.53028  Biso   1.000  H
  O4       1.0000 0.48204  0.25412  0.66245  Biso   1.000  O
  C24      1.0000 0.46583  0.46602  0.65558  Biso   1.000  C
  H25      1.0000 0.30601  0.17067  0.41208  Biso   1.000  H
  C25      1.0000 0.23129  0.25997  0.45891  Biso   1.000  C
  O5       1.0000 0.32076  0.07246  0.59698  Biso   1.000  O
  C26      1.0000 0.23200  0.21496  0.56171  Biso   1.000  C
  C27      1.0000 0.31952  0.53956  0.53851  Biso   1.000  C
  C28      1.0000 0.47993  0.57224  0.62670  Biso   1.000  C
  H26      1.0000 0.53704  0.64821  0.56271  Biso   1.000  H
  C29      1.0000 0.52850  0.20965  0.70639  Biso   1.000  C
  C30      1.0000 0.41699  0.46341  0.70779  Biso   1.000  C
  H27      1.0000 0.21168  0.30237  0.42761  Biso   1.000  H
  C31      1.0000 0.20482  0.27617  0.51400  Biso   1.000  C
  C32      1.0000 0.28311  0.97281  0.62149  Biso   1.000  C
  C33      1.0000 0.20190  0.23783  0.62162  Biso   1.000  C
  C34      1.0000 0.29261  0.50482  0.59851  Biso   1.000  C
  H28      1.0000 0.37182  0.54550  0.53899  Biso   1.000  H
  H29      1.0000 0.30623  0.47781  0.51050  Biso   1.000  H
  H30      1.0000 0.45680  0.64263  0.63838  Biso   1.000  H
  C35      1.0000 0.49792  0.09020  0.72499  Biso   1.000  C
  H31      1.0000 0.57712  0.19993  0.69129  Biso   1.000  H
  H32      1.0000 0.53012  0.26483  0.73930  Biso   1.000  H
  C36      1.0000 0.35783  0.36979  0.71112  Biso   1.000  C
  H33      1.0000 0.44713  0.45378  0.74219  Biso   1.000  H
  H34      1.0000 0.39419  0.54190  0.71068  Biso   1.000  H
  H35      1.0000 0.16711  0.33027  0.51961  Biso   1.000  H
  H36      1.0000 0.23999  0.00000  0.64179  Biso   1.000  H
  H37      1.0000 0.26879  0.91691  0.59098  Biso   1.000  H
  C37      1.0000 0.33389  0.91349  0.66341  Biso   1.000  C
  C38      1.0000 0.25463  0.26186  0.67129  Biso   1.000  C
  H38      1.0000 0.16949  0.30615  0.61891  Biso   1.000  H
  H39      1.0000 0.17278  0.16860  0.63239  Biso   1.000  H
  O6       1.0000 0.32546  0.39382  0.61133  Biso   1.000  O
  H40      1.0000 0.24042  0.49698  0.59851  Biso   1.000  H
  H41      1.0000 0.30628  0.56504  0.62722  Biso   1.000  H
  H42      1.0000 0.45562  0.10460  0.74902  Biso   1.000  H
  H43      1.0000 0.48220  0.04708  0.69028  Biso   1.000  H
  S3       1.0000 0.55838  0.99712  0.76455  Biso   1.000  S
  C39      1.0000 0.31190  0.34387  0.66551  Biso   1.000  C
  C40      1.0000 0.34621  0.31047  0.76442  Biso   1.000  C
  S4       1.0000 0.29116  0.79080  0.70280  Biso   1.000  S
  H44      1.0000 0.37533  0.88280  0.64210  Biso   1.000  H
  H45      1.0000 0.35129  0.97281  0.69129  Biso   1.000  H
  C41      1.0000 0.24599  0.20506  0.72490  Biso   1.000  C
  C42      1.0000 0.56999  0.07678  0.82989  Biso   1.000  C
  C43      1.0000 0.29062  0.22828  0.77090  Biso   1.000  C
  H46      1.0000 0.37641  0.32667  0.79589  Biso   1.000  H
  C44      1.0000 0.26463  0.86434  0.76958  Biso   1.000  C
  H47      1.0000 0.20871  0.14970  0.72958  Biso   1.000  H
  C45      1.0000 0.50570  0.11549  0.86302  Biso   1.000  C
  H48      1.0000 0.59814  0.14817  0.82101  Biso   1.000  H
  H49      1.0000 0.59911  0.02737  0.85571  Biso   1.000  H
  H50      1.0000 0.28370  0.18931  0.80652  Biso   1.000  H
  H51      1.0000 0.22773  0.81628  0.78880  Biso   1.000  H
  H52      1.0000 0.24350  0.94194  0.76022  Biso   1.000  H
  C46      1.0000 0.32708  0.88298  0.81160  Biso   1.000  C
  O7       1.0000 0.45951  0.01476  0.87361  Biso   1.000  O
  H53      1.0000 0.47971  0.17625  0.84092  Biso   1.000  H
  H54      1.0000 0.52050  0.15069  0.90000  Biso   1.000  H
  O8       1.0000 0.29742  0.94086  0.86188  Biso   1.000  O
  H55      1.0000 0.36399  0.93303  0.79392  Biso   1.000  H
  H56      1.0000 0.34853  0.80637  0.82232  Biso   1.000  H
  C47      1.0000 0.40083  0.04420  0.90919  Biso   1.000  C
  C48      1.0000 0.34459  0.94743  0.91151  Biso   1.000  C
  H57      1.0000 0.41801  0.05977  0.94849  Biso   1.000  H
  H58      1.0000 0.37879  0.11756  0.89462  Biso   1.000  H
  H59      1.0000 0.31541  0.95967  0.94621  Biso   1.000  H
  H60      1.0000 0.36879  0.87047  0.91571  Biso   1.000  H
  C49      1.0000 0.58301  0.53659  0.20779  Biso   1.000  C
  C50      1.0000 0.53423  0.53398  0.15558  Biso   1.000  C
  C51      1.0000 0.64223  0.63021  0.21112  Biso   1.000  C
  H61      1.0000 0.55292  0.54622  0.24219  Biso   1.000  H
  H62      1.0000 0.60581  0.45810  0.21068  Biso   1.000  H
  C52      1.0000 0.52013  0.42767  0.12670  Biso   1.000  C
  C53      1.0000 0.49884  0.63768  0.13681  Biso   1.000  C
  C54      1.0000 0.65384  0.68944  0.26442  Biso   1.000  C
  C55      1.0000 0.68810  0.65604  0.16551  Biso   1.000  C
  C56      1.0000 0.47231  0.42479  0.08109  Biso   1.000  C
  H63      1.0000 0.54320  0.35728  0.13838  Biso   1.000  H
  C57      1.0000 0.45092  0.63678  0.09002  Biso   1.000  C
  O9       1.0000 0.51796  0.74588  0.16245  Biso   1.000  O
  C58      1.0000 0.70944  0.77172  0.27090  Biso   1.000  C
  H64      1.0000 0.62364  0.67324  0.29589  Biso   1.000  H
  O10      1.0000 0.67459  0.60618  0.11133  Biso   1.000  O
  C59      1.0000 0.74542  0.73805  0.17129  Biso   1.000  C
  H65      1.0000 0.46302  0.35179  0.06271  Biso   1.000  H
  C60      1.0000 0.43773  0.52687  0.06171  Biso   1.000  C
  C61      1.0000 0.41029  0.74876  0.07042  Biso   1.000  C
  C62      1.0000 0.47150  0.79026  0.20639  Biso   1.000  C
  C63      1.0000 0.75401  0.79485  0.22490  Biso   1.000  C
  H66      1.0000 0.71630  0.81069  0.30652  Biso   1.000  H
  C64      1.0000 0.70744  0.49518  0.09851  Biso   1.000  C
  C65      1.0000 0.79810  0.76217  0.12162  Biso   1.000  C
  H67      1.0000 0.40591  0.52300  0.03028  Biso   1.000  H
  H68      1.0000 0.37360  0.76632  0.09952  Biso   1.000  H
  H69      1.0000 0.38549  0.72977  0.03418  Biso   1.000  H
  C66      1.0000 0.45400  0.86281  0.06048  Biso   1.000  C
  C67      1.0000 0.50213  0.90980  0.22499  Biso   1.000  C
  H70      1.0000 0.42293  0.80007  0.19129  Biso   1.000  H
  H71      1.0000 0.46993  0.73517  0.23930  Biso   1.000  H
  H72      1.0000 0.79134  0.85030  0.22958  Biso   1.000  H
  H73      1.0000 0.75963  0.50302  0.09851  Biso   1.000  H
  H74      1.0000 0.69372  0.43487  0.12722  Biso   1.000  H
  C68      1.0000 0.68053  0.46035  0.03851  Biso   1.000  C
  C69      1.0000 0.76800  0.78495  0.06171  Biso   1.000  C
  H75      1.0000 0.83051  0.69376  0.11891  Biso   1.000  H
  H76      1.0000 0.82722  0.83140  0.13239  Biso   1.000  H
  C70      1.0000 0.43093  0.96975  0.08591  Biso   1.000  C
  C71      1.0000 0.51651  0.86515  0.02832  Biso   1.000  C
  H77      1.0000 0.54444  0.89540  0.24902  Biso   1.000  H
  H78      1.0000 0.51780  0.95283  0.19028  Biso   1.000  H
  S5       1.0000 0.44162  0.00288  0.26455  Biso   1.000  S
  S6       1.0000 0.71879  0.31767  0.01615  Biso   1.000  S
  H79      1.0000 0.62823  0.45450  0.03899  Biso   1.000  H
  H80      1.0000 0.69382  0.52219  0.01050  Biso   1.000  H
  C72      1.0000 0.79523  0.72374  0.01400  Biso   1.000  C
  C73      1.0000 0.71160  0.86686  0.05098  Biso   1.000  C
  H81      1.0000 0.38900  0.97020  0.10840  Biso   1.000  H
  C74      1.0000 0.46853  0.07444  0.07851  Biso   1.000  C
  O11      1.0000 0.54179  0.76046  0.00149  Biso   1.000  O
  C75      1.0000 0.55681  0.97128  0.02101  Biso   1.000  C
  C76      1.0000 0.43001  0.92313  0.32989  Biso   1.000  C
  C77      1.0000 0.68550  0.30957  0.94210  Biso   1.000  C
  H82      1.0000 0.83295  0.66964  0.01961  Biso   1.000  H
  C78      1.0000 0.76871  0.73994  0.95891  Biso   1.000  C
  C79      1.0000 0.68324  0.88478  0.99558  Biso   1.000  C
  O12      1.0000 0.67924  0.92745  0.09698  Biso   1.000  O
  H83      1.0000 0.45162  0.14547  0.09519  Biso   1.000  H
  C80      1.0000 0.53071  0.07516  0.04678  Biso   1.000  C
  C81      1.0000 0.50532  0.73499  0.94810  Biso   1.000  C
  C82      1.0000 0.62413  0.97525  0.98442  Biso   1.000  C
  C83      1.0000 0.49430  0.88451  0.36302  Biso   1.000  C
  H84      1.0000 0.40191  0.85174  0.32101  Biso   1.000  H
  H85      1.0000 0.40089  0.97254  0.35571  Biso   1.000  H
  H86      1.0000 0.63493  0.33189  0.94188  Biso   1.000  H
  H87      1.0000 0.68902  0.22702  0.92871  Biso   1.000  H
  C84      1.0000 0.72494  0.38824  0.90031  Biso   1.000  C
  C85      1.0000 0.71252  0.81934  0.94972  Biso   1.000  C
  H88      1.0000 0.78832  0.69754  0.92761  Biso   1.000  H
  C86      1.0000 0.71689  0.02719  0.12149  Biso   1.000  C
  H89      1.0000 0.55611  0.14673  0.04241  Biso   1.000  H
  C87      1.0000 0.53239  0.61626  0.92451  Biso   1.000  C
  H90      1.0000 0.45362  0.73067  0.95479  Biso   1.000  H
  H91      1.0000 0.51451  0.79854  0.91991  Biso   1.000  H
  H92      1.0000 0.60960  0.96714  0.94381  Biso   1.000  H
  H93      1.0000 0.64493  0.05482  0.98871  Biso   1.000  H
  O13      1.0000 0.54049  0.98515  0.37361  Biso   1.000  O
  H94      1.0000 0.52029  0.82366  0.34092  Biso   1.000  H
  H95      1.0000 0.47950  0.84931  0.40000  Biso   1.000  H
  O14      1.0000 0.69091  0.37987  0.84499  Biso   1.000  O
  H96      1.0000 0.77492  0.36286  0.89729  Biso   1.000  H
  H97      1.0000 0.72392  0.47097  0.91392  Biso   1.000  H
  H98      1.0000 0.69404  0.82924  0.91208  Biso   1.000  H
  H99      1.0000 0.76001  0.00000  0.14179  Biso   1.000  H
  H100     1.0000 0.73121  0.08309  0.09098  Biso   1.000  H
  C88      1.0000 0.66611  0.08642  0.16341  Biso   1.000  C
  S7       1.0000 0.47879  0.57053  0.86210  Biso   1.000  S
  H101     1.0000 0.58264  0.62418  0.91291  Biso   1.000  H
  H102     1.0000 0.52953  0.55541  0.95479  Biso   1.000  H
  C89      1.0000 0.59922  0.95580  0.40919  Biso   1.000  C
  C90      1.0000 0.71970  0.46413  0.80359  Biso   1.000  C
  S8       1.0000 0.70884  0.20920  0.20280  Biso   1.000  S
  H103     1.0000 0.62472  0.11720  0.14210  Biso   1.000  H
  H104     1.0000 0.64871  0.02719  0.19129  Biso   1.000  H
  C91      1.0000 0.51510  0.66307  0.80621  Biso   1.000  C
  H105     1.0000 0.58204  0.94014  0.44849  Biso   1.000  H
  H106     1.0000 0.62121  0.88235  0.39462  Biso   1.000  H
  C92      1.0000 0.65541  0.05257  0.41151  Biso   1.000  C
  C93      1.0000 0.66503  0.48276  0.75759  Biso   1.000  C
  H107     1.0000 0.73062  0.53974  0.82280  Biso   1.000  H
  H108     1.0000 0.76384  0.43280  0.78661  Biso   1.000  H
  C94      1.0000 0.73543  0.13566  0.26958  Biso   1.000  C
  C95      1.0000 0.60149  0.61905  0.78989  Biso   1.000  C
  H109     1.0000 0.51532  0.74633  0.81908  Biso   1.000  H
  H110     1.0000 0.48522  0.65748  0.77138  Biso   1.000  H
  O15      1.0000 0.70263  0.05905  0.36188  Biso   1.000  O
  H111     1.0000 0.68464  0.04024  0.44621  Biso   1.000  H
  H112     1.0000 0.63121  0.12944  0.41571  Biso   1.000  H
  O16      1.0000 0.58609  0.52300  0.76888  Biso   1.000  O
  H113     1.0000 0.68534  0.54127  0.73081  Biso   1.000  H
  H114     1.0000 0.66189  0.40751  0.73619  Biso   1.000  H
  C96      1.0000 0.67292  0.11693  0.31160  Biso   1.000  C
  H115     1.0000 0.77233  0.18363  0.28880  Biso   1.000  H
  H116     1.0000 0.75650  0.05806  0.26022  Biso   1.000  H
  H117     1.0000 0.63142  0.61140  0.82451  Biso   1.000  H
  H118     1.0000 0.62462  0.67225  0.76188  Biso   1.000  H
  H119     1.0000 0.63601  0.06697  0.29392  Biso   1.000  H
  H120     1.0000 0.65152  0.19354  0.32232  Biso   1.000  H
  C97      1.0000 0.78032  0.46413  0.30359  Biso   1.000  C
  O17      1.0000 0.80912  0.37987  0.34499  Biso   1.000  O
  H121     1.0000 0.76941  0.53974  0.32280  Biso   1.000  H
  H122     1.0000 0.73624  0.43280  0.28661  Biso   1.000  H
  C98      1.0000 0.83500  0.48276  0.25759  Biso   1.000  C
  C99      1.0000 0.77514  0.38824  0.40031  Biso   1.000  C
  O18      1.0000 0.91393  0.52300  0.26888  Biso   1.000  O
  H123     1.0000 0.81474  0.54127  0.23081  Biso   1.000  H
  H124     1.0000 0.83813  0.40751  0.23619  Biso   1.000  H
  C100     1.0000 0.81452  0.30957  0.44210  Biso   1.000  C
  H125     1.0000 0.72511  0.36286  0.39729  Biso   1.000  H
  H126     1.0000 0.77611  0.47097  0.41392  Biso   1.000  H
  C101     1.0000 0.89854  0.61905  0.28989  Biso   1.000  C
  S9       1.0000 0.78124  0.31767  0.51615  Biso   1.000  S
  H127     1.0000 0.86515  0.33189  0.44188  Biso   1.000  H
  H128     1.0000 0.81101  0.22702  0.42871  Biso   1.000  H
  H129     1.0000 0.86860  0.61140  0.32451  Biso   1.000  H
  H130     1.0000 0.87541  0.67225  0.26188  Biso   1.000  H
  C102     1.0000 0.98493  0.66307  0.30621  Biso   1.000  C
  C103     1.0000 0.81955  0.46035  0.53851  Biso   1.000  C
  H131     1.0000 0.98471  0.74633  0.31908  Biso   1.000  H
  S10      1.0000 0.02129  0.57053  0.36210  Biso   1.000  S
  H132     1.0000 0.01480  0.65748  0.27138  Biso   1.000  H
  C104     1.0000 0.79264  0.49518  0.59851  Biso   1.000  C
  H133     1.0000 0.87185  0.45450  0.53899  Biso   1.000  H
  H134     1.0000 0.80620  0.52219  0.51050  Biso   1.000  H
  C105     1.0000 0.96764  0.61626  0.42451  Biso   1.000  C
  O19      1.0000 0.82549  0.60618  0.61133  Biso   1.000  O
  H135     1.0000 0.74040  0.50302  0.59851  Biso   1.000  H
  H136     1.0000 0.80631  0.43487  0.62722  Biso   1.000  H
  H137     1.0000 0.91745  0.62418  0.41291  Biso   1.000  H
  H138     1.0000 0.97050  0.55541  0.45479  Biso   1.000  H
  C106     1.0000 0.99471  0.73499  0.44810  Biso   1.000  C
  C107     1.0000 0.81193  0.65604  0.66551  Biso   1.000  C
  O20      1.0000 0.95824  0.76046  0.50149  Biso   1.000  O
  H139     1.0000 0.98552  0.79854  0.41991  Biso   1.000  H
  H140     1.0000 0.04636  0.73067  0.45479  Biso   1.000  H
  C108     1.0000 0.75461  0.73805  0.67129  Biso   1.000  C
  C109     1.0000 0.85780  0.63021  0.71112  Biso   1.000  C
  C110     1.0000 0.98352  0.86515  0.52832  Biso   1.000  C
  C111     1.0000 0.70193  0.76217  0.62162  Biso   1.000  C
  C112     1.0000 0.74602  0.79485  0.72490  Biso   1.000  C
  C113     1.0000 0.84624  0.68944  0.76442  Biso   1.000  C
  C114     1.0000 0.91701  0.53659  0.70779  Biso   1.000  C
  C115     1.0000 0.94322  0.97128  0.52101  Biso   1.000  C
  C116     1.0000 0.04603  0.86281  0.56048  Biso   1.000  C
  C117     1.0000 0.73202  0.78495  0.56171  Biso   1.000  C
  H141     1.0000 0.66951  0.69376  0.61891  Biso   1.000  H
  H142     1.0000 0.67281  0.83140  0.63239  Biso   1.000  H
  H143     1.0000 0.70874  0.85030  0.72958  Biso   1.000  H
  C118     1.0000 0.79064  0.77172  0.77090  Biso   1.000  C
  H144     1.0000 0.87644  0.67324  0.79589  Biso   1.000  H
  H145     1.0000 0.94711  0.54622  0.74219  Biso   1.000  H
  H146     1.0000 0.89421  0.45810  0.71068  Biso   1.000  H
  C119     1.0000 0.96580  0.53398  0.65558  Biso   1.000  C
  C120     1.0000 0.87590  0.97525  0.48442  Biso   1.000  C
  C121     1.0000 0.96931  0.07516  0.54678  Biso   1.000  C
  C122     1.0000 0.08974  0.74876  0.57042  Biso   1.000  C
  C123     1.0000 0.06916  0.96975  0.58591  Biso   1.000  C
  C124     1.0000 0.70479  0.72374  0.51400  Biso   1.000  C
  C125     1.0000 0.78843  0.86686  0.55098  Biso   1.000  C
  H147     1.0000 0.78373  0.81069  0.80652  Biso   1.000  H
  C126     1.0000 0.97990  0.42767  0.62670  Biso   1.000  C
  C127     1.0000 0.00124  0.63768  0.63681  Biso   1.000  C
  C128     1.0000 0.81685  0.88478  0.49558  Biso   1.000  C
  H148     1.0000 0.89043  0.96714  0.44381  Biso   1.000  H
  H149     1.0000 0.85510  0.05482  0.48871  Biso   1.000  H
  H150     1.0000 0.94392  0.14673  0.54241  Biso   1.000  H
  C129     1.0000 0.03155  0.07444  0.57851  Biso   1.000  C
  C130     1.0000 0.04906  0.63678  0.59002  Biso   1.000  C
  H151     1.0000 0.12642  0.76632  0.59952  Biso   1.000  H
  H152     1.0000 0.11454  0.72977  0.53418  Biso   1.000  H
  H153     1.0000 0.11103  0.97020  0.60840  Biso   1.000  H
  C131     1.0000 0.73132  0.73994  0.45891  Biso   1.000  C
  H154     1.0000 0.66713  0.66964  0.51961  Biso   1.000  H
  O21      1.0000 0.82079  0.92745  0.59698  Biso   1.000  O
  H155     1.0000 0.95683  0.35728  0.63838  Biso   1.000  H
  C132     1.0000 0.02772  0.42479  0.58109  Biso   1.000  C
  O22      1.0000 0.98206  0.74588  0.66245  Biso   1.000  O
  C133     1.0000 0.78751  0.81934  0.44972  Biso   1.000  C
  H156     1.0000 0.04841  0.14547  0.59519  Biso   1.000  H
  C134     1.0000 0.06235  0.52687  0.56171  Biso   1.000  C
  H157     1.0000 0.71171  0.69754  0.42761  Biso   1.000  H
  C135     1.0000 0.78313  0.02719  0.62149  Biso   1.000  C
  H158     1.0000 0.03701  0.35179  0.56271  Biso   1.000  H
  C136     1.0000 0.02847  0.79026  0.70639  Biso   1.000  C
  H159     1.0000 0.80604  0.82924  0.41208  Biso   1.000  H
  H160     1.0000 0.09412  0.52300  0.53028  Biso   1.000  H
  H161     1.0000 0.74002  0.00000  0.64179  Biso   1.000  H
  H162     1.0000 0.76882  0.08309  0.59098  Biso   1.000  H
  C137     1.0000 0.83392  0.08642  0.66341  Biso   1.000  C
  C138     1.0000 0.99795  0.90980  0.72499  Biso   1.000  C
  H163     1.0000 0.07715  0.80007  0.69129  Biso   1.000  H
  H164     1.0000 0.03015  0.73517  0.73930  Biso   1.000  H
  S11      1.0000 0.79118  0.20920  0.70280  Biso   1.000  S
  H165     1.0000 0.87530  0.11720  0.64210  Biso   1.000  H
  H166     1.0000 0.85132  0.02719  0.69129  Biso   1.000  H
  H167     1.0000 0.95564  0.89540  0.74902  Biso   1.000  H
  H168     1.0000 0.98222  0.95283  0.69028  Biso   1.000  H
  S12      1.0000 0.05840  0.00288  0.76455  Biso   1.000  S
  C139     1.0000 0.76460  0.13566  0.76958  Biso   1.000  C
  C140     1.0000 0.07002  0.92313  0.82989  Biso   1.000  C
  H169     1.0000 0.72770  0.18363  0.78880  Biso   1.000  H
  H170     1.0000 0.74353  0.05806  0.76022  Biso   1.000  H
  C141     1.0000 0.82711  0.11693  0.81160  Biso   1.000  C
  C142     1.0000 0.00573  0.88451  0.86302  Biso   1.000  C
  H171     1.0000 0.09811  0.85174  0.82101  Biso   1.000  H
  H172     1.0000 0.09914  0.97254  0.85571  Biso   1.000  H
  O23      1.0000 0.79740  0.05905  0.86188  Biso   1.000  O
  H173     1.0000 0.86401  0.06697  0.79392  Biso   1.000  H
  H174     1.0000 0.84851  0.19354  0.82232  Biso   1.000  H
  O24      1.0000 0.95953  0.98515  0.87361  Biso   1.000  O
  H175     1.0000 0.97974  0.82366  0.84092  Biso   1.000  H
  H176     1.0000 0.02053  0.84931  0.90000  Biso   1.000  H
  C143     1.0000 0.84462  0.05257  0.91151  Biso   1.000  C
  C144     1.0000 0.90081  0.95580  0.90919  Biso   1.000  C
  H177     1.0000 0.81544  0.04024  0.94621  Biso   1.000  H
  H178     1.0000 0.86882  0.12944  0.91571  Biso   1.000  H
  H179     1.0000 0.91804  0.94014  0.94849  Biso   1.000  H
  H180     1.0000 0.87882  0.88235  0.89462  Biso   1.000  H
  C145     1.0000 0.25398  0.20506  0.22490  Biso   1.000  C
  C146     1.0000 0.24539  0.26186  0.17129  Biso   1.000  C
  H181     1.0000 0.29132  0.14970  0.22958  Biso   1.000  H
  C147     1.0000 0.20941  0.22828  0.27090  Biso   1.000  C
  C148     1.0000 0.29813  0.23783  0.12162  Biso   1.000  C
  C149     1.0000 0.18812  0.34387  0.16551  Biso   1.000  C
  H182     1.0000 0.21633  0.18931  0.30652  Biso   1.000  H
  C150     1.0000 0.15382  0.31047  0.26442  Biso   1.000  C
  C151     1.0000 0.26803  0.21496  0.06171  Biso   1.000  C
  H183     1.0000 0.33049  0.30615  0.11891  Biso   1.000  H
  H184     1.0000 0.32719  0.16860  0.13239  Biso   1.000  H
  O25      1.0000 0.17456  0.39382  0.11133  Biso   1.000  O
  C152     1.0000 0.14220  0.36979  0.21112  Biso   1.000  C
  H185     1.0000 0.12362  0.32667  0.29589  Biso   1.000  H
  C153     1.0000 0.29521  0.27617  0.01400  Biso   1.000  C
  C154     1.0000 0.21163  0.13314  0.05098  Biso   1.000  C
  C155     1.0000 0.20741  0.50482  0.09851  Biso   1.000  C
  C156     1.0000 0.08299  0.46341  0.20779  Biso   1.000  C
  H186     1.0000 0.33292  0.33027  0.01961  Biso   1.000  H
  C157     1.0000 0.26873  0.25997  0.95891  Biso   1.000  C
  O26      1.0000 0.17921  0.07246  0.09698  Biso   1.000  O
  C158     1.0000 0.18321  0.11522  0.99558  Biso   1.000  C
  H187     1.0000 0.25960  0.49698  0.09851  Biso   1.000  H
  H188     1.0000 0.19369  0.56504  0.12722  Biso   1.000  H
  C159     1.0000 0.18051  0.53956  0.03851  Biso   1.000  C
  H189     1.0000 0.05289  0.45378  0.24219  Biso   1.000  H
  H190     1.0000 0.10579  0.54190  0.21068  Biso   1.000  H
  C160     1.0000 0.03420  0.46602  0.15558  Biso   1.000  C
  C161     1.0000 0.21249  0.18057  0.94972  Biso   1.000  C
  H191     1.0000 0.28829  0.30237  0.92761  Biso   1.000  H
  C162     1.0000 0.21692  0.97281  0.12149  Biso   1.000  C
  C163     1.0000 0.12410  0.02466  0.98442  Biso   1.000  C
  S13      1.0000 0.21876  0.68233  0.01615  Biso   1.000  S
  H192     1.0000 0.12821  0.54550  0.03899  Biso   1.000  H
  H193     1.0000 0.19380  0.47781  0.01050  Biso   1.000  H
  C164     1.0000 0.02010  0.57224  0.12670  Biso   1.000  C
  C165     1.0000 0.99887  0.36232  0.13681  Biso   1.000  C
  H194     1.0000 0.19401  0.17067  0.91208  Biso   1.000  H
  H195     1.0000 0.25998  0.00000  0.14179  Biso   1.000  H
  H196     1.0000 0.23118  0.91691  0.09098  Biso   1.000  H
  C166     1.0000 0.16608  0.91349  0.16341  Biso   1.000  C
  C167     1.0000 0.05678  0.02872  0.02101  Biso   1.000  C
  H197     1.0000 0.14490  0.94509  0.98871  Biso   1.000  H
  H198     1.0000 0.10962  0.03277  0.94381  Biso   1.000  H
  C168     1.0000 0.18553  0.69034  0.94210  Biso   1.000  C
  H199     1.0000 0.04322  0.64263  0.13838  Biso   1.000  H
  C169     1.0000 0.97234  0.57521  0.08109  Biso   1.000  C
  O27      1.0000 0.01799  0.25412  0.16245  Biso   1.000  O
  C170     1.0000 0.95094  0.36322  0.09002  Biso   1.000  C
  S14      1.0000 0.20887  0.79080  0.20280  Biso   1.000  S
  H200     1.0000 0.12470  0.88280  0.14210  Biso   1.000  H
  H201     1.0000 0.14868  0.97281  0.19129  Biso   1.000  H
  C171     1.0000 0.01648  0.13476  0.02832  Biso   1.000  C
  C172     1.0000 0.03069  0.92484  0.04678  Biso   1.000  C
  H202     1.0000 0.13491  0.66811  0.94188  Biso   1.000  H
  H203     1.0000 0.18899  0.77298  0.92871  Biso   1.000  H
  C173     1.0000 0.22492  0.61167  0.90031  Biso   1.000  C
  H204     1.0000 0.96305  0.64821  0.06271  Biso   1.000  H
  C174     1.0000 0.93776  0.47304  0.06171  Biso   1.000  C
  C175     1.0000 0.97153  0.20965  0.20639  Biso   1.000  C
  C176     1.0000 0.91031  0.25115  0.07042  Biso   1.000  C
  C177     1.0000 0.23540  0.86434  0.26958  Biso   1.000  C
  O28      1.0000 0.04176  0.23954  0.00149  Biso   1.000  O
  C178     1.0000 0.95408  0.13719  0.06048  Biso   1.000  C
  C179     1.0000 0.96856  0.92547  0.07851  Biso   1.000  C
  H205     1.0000 0.05608  0.85318  0.04241  Biso   1.000  H
  O29      1.0000 0.19088  0.62004  0.84499  Biso   1.000  O
  H206     1.0000 0.27489  0.63705  0.89729  Biso   1.000  H
  H207     1.0000 0.22389  0.52894  0.91392  Biso   1.000  H
  H208     1.0000 0.90588  0.47700  0.03028  Biso   1.000  H
  C180     1.0000 0.00211  0.09020  0.22499  Biso   1.000  C
  H209     1.0000 0.92290  0.19993  0.19129  Biso   1.000  H
  H210     1.0000 0.96996  0.26483  0.23930  Biso   1.000  H
  H211     1.0000 0.87363  0.23368  0.09952  Biso   1.000  H
  H212     1.0000 0.88552  0.27023  0.03418  Biso   1.000  H
  H213     1.0000 0.27230  0.81628  0.28880  Biso   1.000  H
  H214     1.0000 0.25652  0.94194  0.26022  Biso   1.000  H
  C181     1.0000 0.17289  0.88298  0.31160  Biso   1.000  C
  C182     1.0000 0.00529  0.26501  0.94810  Biso   1.000  C
  C183     1.0000 0.93090  0.03016  0.08591  Biso   1.000  C
  H215     1.0000 0.95165  0.85453  0.09519  Biso   1.000  H
  C184     1.0000 0.21973  0.53587  0.80359  Biso   1.000  C
  H216     1.0000 0.04441  0.10460  0.24902  Biso   1.000  H
  H217     1.0000 0.01778  0.04708  0.19028  Biso   1.000  H
  S15      1.0000 0.94165  0.99712  0.26455  Biso   1.000  S
  O30      1.0000 0.20260  0.94086  0.36188  Biso   1.000  O
  H218     1.0000 0.13599  0.93303  0.29392  Biso   1.000  H
  H219     1.0000 0.15149  0.80637  0.32232  Biso   1.000  H
  H220     1.0000 0.95364  0.26933  0.95479  Biso   1.000  H
  C185     1.0000 0.03242  0.38365  0.92451  Biso   1.000  C
  H221     1.0000 0.01448  0.20137  0.91991  Biso   1.000  H
  H222     1.0000 0.88897  0.02980  0.10840  Biso   1.000  H
  H223     1.0000 0.23059  0.46017  0.82280  Biso   1.000  H
  H224     1.0000 0.26382  0.56720  0.78661  Biso   1.000  H
  C186     1.0000 0.16500  0.51715  0.75759  Biso   1.000  C
  C187     1.0000 0.92998  0.07678  0.32989  Biso   1.000  C
  C188     1.0000 0.15538  0.94743  0.41151  Biso   1.000  C
  S16      1.0000 0.97882  0.42947  0.86210  Biso   1.000  S
  H225     1.0000 0.08261  0.37582  0.91291  Biso   1.000  H
  H226     1.0000 0.02950  0.44459  0.95479  Biso   1.000  H
  O31      1.0000 0.08612  0.47700  0.76888  Biso   1.000  O
  H227     1.0000 0.18532  0.45873  0.73081  Biso   1.000  H
  H228     1.0000 0.16192  0.59249  0.73619  Biso   1.000  H
  C189     1.0000 0.99427  0.11549  0.36302  Biso   1.000  C
  H229     1.0000 0.90194  0.14817  0.32101  Biso   1.000  H
  H230     1.0000 0.90091  0.02737  0.35571  Biso   1.000  H
  C190     1.0000 0.09919  0.04420  0.40919  Biso   1.000  C
  H231     1.0000 0.18461  0.95967  0.44621  Biso   1.000  H
  H232     1.0000 0.13118  0.87047  0.41571  Biso   1.000  H
  C191     1.0000 0.01507  0.33684  0.80621  Biso   1.000  C
  C192     1.0000 0.10152  0.38086  0.78989  Biso   1.000  C
  O32      1.0000 0.04052  0.01476  0.37361  Biso   1.000  O
  H233     1.0000 0.02031  0.17625  0.34092  Biso   1.000  H
  H234     1.0000 0.97958  0.15069  0.40000  Biso   1.000  H
  H235     1.0000 0.08201  0.05977  0.44849  Biso   1.000  H
  H236     1.0000 0.12118  0.11756  0.39462  Biso   1.000  H
  H237     1.0000 0.98525  0.34252  0.77138  Biso   1.000  H
  H238     1.0000 0.01529  0.25358  0.81908  Biso   1.000  H
  H239     1.0000 0.13140  0.38860  0.82451  Biso   1.000  H
  H240     1.0000 0.12459  0.32766  0.76188  Biso   1.000  H
  Ne1      1.0000 0.10673  0.24296  0.09240  Biso   1.000  Ne
  He1      1.0000 0.05750  0.97789  0.13789  Biso   1.000  He
  He2      1.0000 0.04943  0.52763  0.01029  Biso   1.000  He
  Ar1      1.0000 0.10382  0.23235  0.09285  Biso   1.000  Ar
  Ne2      1.0000 0.39329  0.24296  0.59240  Biso   1.000  Ne
  He3      1.0000 0.44303  0.97544  0.63859  Biso   1.000  He
  He4      1.0000 0.41704  0.34218  0.56791  Biso   1.000  He
  Ar2      1.0000 0.39450  0.23365  0.58967  Biso   1.000  Ar
  Ne3      1.0000 0.60673  0.75700  0.09240  Biso   1.000  Ne
  He5      1.0000 0.54332  0.07138  0.15483  Biso   1.000  He
  He6      1.0000 0.54937  0.46907  0.00943  Biso   1.000  He
  Ar3      1.0000 0.60304  0.76316  0.09042  Biso   1.000  Ar
  Ne4      1.0000 0.89330  0.75700  0.59240  Biso   1.000  Ne
  He7      1.0000 0.94206  0.02002  0.63729  Biso   1.000  He
  He8      1.0000 0.95086  0.45939  0.50681  Biso   1.000  He
  Ar4      1.0000 0.89621  0.76765  0.59290  Biso   1.000  Ar
