data_image0
_cell_length_a       12.347
_cell_length_b       20.519
_cell_length_c       14.604
_cell_angle_alpha    90
_cell_angle_beta     109.25
_cell_angle_gamma    90

_symmetry_space_group_name_H-M    "P 1"
_symmetry_int_tables_number       1

loop_
  _symmetry_equiv_pos_as_xyz
  'x, y, z'

loop_
  _atom_site_label
  _atom_site_occupancy
  _atom_site_fract_x
  _atom_site_fract_y
  _atom_site_fract_z
  _atom_site_thermal_displace_type
  _atom_site_B_iso_or_equiv
  _atom_site_type_symbol
  C1       1.0000 0.58214  0.66178  0.55093  Biso   1.000  C
  C2       1.0000 0.50299  0.68941  0.45701  Biso   1.000  C
  O1       1.0000 0.68680  0.64511  0.53998  Biso   1.000  O
  H1       1.0000 0.59446  0.69389  0.60207  Biso   1.000  H
  H2       1.0000 0.54746  0.62362  0.56878  Biso   1.000  H
  N1       1.0000 0.54143  0.75359  0.42618  Biso   1.000  N
  H3       1.0000 0.42778  0.69540  0.46310  Biso   1.000  H
  H4       1.0000 0.49525  0.65759  0.40602  Biso   1.000  H
  C3       1.0000 0.77852  0.63468  0.62753  Biso   1.000  C
  C4       1.0000 0.55623  0.80399  0.50299  Biso   1.000  C
  C5       1.0000 0.64301  0.74970  0.39239  Biso   1.000  C
  H5       1.0000 0.47068  0.76870  0.36127  Biso   1.000  H
  C6       1.0000 0.88757  0.63838  0.60497  Biso   1.000  C
  H6       1.0000 0.77111  0.59228  0.65422  Biso   1.000  H
  H7       1.0000 0.77761  0.66782  0.67482  Biso   1.000  H
  C7       1.0000 0.57401  0.87212  0.47173  Biso   1.000  C
  H8       1.0000 0.62161  0.79229  0.55891  Biso   1.000  H
  H9       1.0000 0.48883  0.80389  0.52330  Biso   1.000  H
  C8       1.0000 0.62649  0.70271  0.31159  Biso   1.000  C
  H10      1.0000 0.65792  0.79258  0.37121  Biso   1.000  H
  H11      1.0000 0.70960  0.73688  0.44642  Biso   1.000  H
  O2       1.0000 0.90721  0.70349  0.58742  Biso   1.000  O
  H12      1.0000 0.95060  0.62191  0.65922  Biso   1.000  H
  H13      1.0000 0.88184  0.61212  0.54832  Biso   1.000  H
  O3       1.0000 0.69182  0.88250  0.48994  Biso   1.000  O
  H14      1.0000 0.53251  0.87748  0.40312  Biso   1.000  H
  H15      1.0000 0.54491  0.90360  0.50720  Biso   1.000  H
  O4       1.0000 0.71972  0.71051  0.27590  Biso   1.000  O
  H16      1.0000 0.62490  0.65851  0.33472  Biso   1.000  H
  H17      1.0000 0.55450  0.71119  0.26053  Biso   1.000  H
  C9       1.0000 0.00082  0.71392  0.55289  Biso   1.000  C
  C10      1.0000 0.71146  0.94332  0.45077  Biso   1.000  C
  C11      1.0000 0.76249  0.65062  0.25639  Biso   1.000  C
  C12      1.0000 0.96551  0.77021  0.48479  Biso   1.000  C
  H18      1.0000 0.01453  0.67562  0.51953  Biso   1.000  H
  H19      1.0000 0.07011  0.72411  0.60598  Biso   1.000  H
  C13      1.0000 0.83348  0.94868  0.46252  Biso   1.000  C
  H20      1.0000 0.68903  0.97890  0.48443  Biso   1.000  H
  H21      1.0000 0.66608  0.94590  0.38259  Biso   1.000  H
  C14      1.0000 0.87171  0.66202  0.23739  Biso   1.000  C
  H22      1.0000 0.70729  0.63020  0.20040  Biso   1.000  H
  H23      1.0000 0.77564  0.62162  0.31151  Biso   1.000  H
  H24      1.0000 0.94264  0.80589  0.51793  Biso   1.000  H
  H25      1.0000 0.89910  0.75749  0.43039  Biso   1.000  H
  N2       1.0000 0.05746  0.79380  0.44664  Biso   1.000  N
  O5       1.0000 0.86259  0.89980  0.40530  Biso   1.000  O
  H26      1.0000 0.84961  0.99152  0.44200  Biso   1.000  H
  H27      1.0000 0.87914  0.94298  0.53019  Biso   1.000  H
  O6       1.0000 0.95501  0.68069  0.32660  Biso   1.000  O
  H28      1.0000 0.89582  0.62250  0.21302  Biso   1.000  H
  H29      1.0000 0.86195  0.69609  0.18952  Biso   1.000  H
  C15      1.0000 0.01325  0.84410  0.36983  Biso   1.000  C
  C16      1.0000 0.12001  0.74190  0.41117  Biso   1.000  C
  H30      1.0000 0.12281  0.81841  0.50684  Biso   1.000  H
  C17      1.0000 0.97678  0.90599  0.40609  Biso   1.000  C
  C18      1.0000 0.05330  0.71051  0.31717  Biso   1.000  C
  H31      1.0000 0.94825  0.82631  0.31862  Biso   1.000  H
  H32      1.0000 0.07261  0.85418  0.34198  Biso   1.000  H
  H33      1.0000 0.18881  0.76100  0.40442  Biso   1.000  H
  H34      1.0000 0.14394  0.70822  0.46049  Biso   1.000  H
  H35      1.0000 0.98228  0.94210  0.36497  Biso   1.000  H
  H36      1.0000 0.02715  0.91491  0.47151  Biso   1.000  H
  H37      1.0000 0.03099  0.74312  0.26618  Biso   1.000  H
  H38      1.0000 0.10040  0.67810  0.29984  Biso   1.000  H
  C19      1.0000 0.41794  0.33822  0.44910  Biso   1.000  C
  O7       1.0000 0.31317  0.35489  0.45998  Biso   1.000  O
  C20      1.0000 0.49701  0.31059  0.54303  Biso   1.000  C
  H39      1.0000 0.40551  0.30611  0.39790  Biso   1.000  H
  H40      1.0000 0.45251  0.37638  0.43119  Biso   1.000  H
  C21      1.0000 0.22148  0.36532  0.37251  Biso   1.000  C
  N3       1.0000 0.45863  0.24641  0.57378  Biso   1.000  N
  H41      1.0000 0.57222  0.30460  0.53694  Biso   1.000  H
  H42      1.0000 0.50483  0.34241  0.59402  Biso   1.000  H
  C22      1.0000 0.11240  0.36162  0.39500  Biso   1.000  C
  H43      1.0000 0.22889  0.40772  0.34582  Biso   1.000  H
  H44      1.0000 0.22239  0.33218  0.32522  Biso   1.000  H
  C23      1.0000 0.44382  0.19601  0.49697  Biso   1.000  C
  C24      1.0000 0.35704  0.25030  0.60758  Biso   1.000  C
  H45      1.0000 0.52929  0.23130  0.63870  Biso   1.000  H
  O8       1.0000 0.09279  0.29651  0.41262  Biso   1.000  O
  H46      1.0000 0.04940  0.37809  0.34082  Biso   1.000  H
  H47      1.0000 0.11824  0.38788  0.45171  Biso   1.000  H
  C25      1.0000 0.42599  0.12788  0.52831  Biso   1.000  C
  H48      1.0000 0.37839  0.20771  0.44112  Biso   1.000  H
  H49      1.0000 0.51125  0.19611  0.47674  Biso   1.000  H
  C26      1.0000 0.37348  0.29729  0.68838  Biso   1.000  C
  H50      1.0000 0.34216  0.20742  0.62883  Biso   1.000  H
  H51      1.0000 0.29040  0.26312  0.55362  Biso   1.000  H
  C27      1.0000 0.99924  0.28608  0.44707  Biso   1.000  C
  O9       1.0000 0.30817  0.11750  0.51010  Biso   1.000  O
  H52      1.0000 0.46749  0.12252  0.59692  Biso   1.000  H
  H53      1.0000 0.45516  0.09640  0.49284  Biso   1.000  H
  O10      1.0000 0.28036  0.28949  0.72414  Biso   1.000  O
  H54      1.0000 0.37510  0.34149  0.66531  Biso   1.000  H
  H55      1.0000 0.44550  0.28881  0.73951  Biso   1.000  H
  C28      1.0000 0.03454  0.22979  0.51518  Biso   1.000  C
  H56      1.0000 0.98555  0.32438  0.48051  Biso   1.000  H
  H57      1.0000 0.92994  0.27589  0.39398  Biso   1.000  H
  C29      1.0000 0.28851  0.05668  0.54919  Biso   1.000  C
  C30      1.0000 0.23748  0.34938  0.74357  Biso   1.000  C
  H58      1.0000 0.05744  0.19411  0.48210  Biso   1.000  H
  H59      1.0000 0.10087  0.24251  0.56957  Biso   1.000  H
  N4       1.0000 0.94262  0.20620  0.55340  Biso   1.000  N
  C31      1.0000 0.16652  0.05132  0.53752  Biso   1.000  C
  H60      1.0000 0.31105  0.02110  0.51561  Biso   1.000  H
  H61      1.0000 0.33389  0.05410  0.61737  Biso   1.000  H
  C32      1.0000 0.12834  0.33798  0.76258  Biso   1.000  C
  H62      1.0000 0.29271  0.36980  0.79964  Biso   1.000  H
  H63      1.0000 0.22444  0.37838  0.68852  Biso   1.000  H
  C33      1.0000 0.98683  0.15590  0.63021  Biso   1.000  C
  C34      1.0000 0.88005  0.25810  0.58880  Biso   1.000  C
  H64      1.0000 0.87719  0.18159  0.49320  Biso   1.000  H
  O11      1.0000 0.13738  0.10020  0.59467  Biso   1.000  O
  H65      1.0000 0.15036  0.00848  0.55797  Biso   1.000  H
  H66      1.0000 0.12091  0.05702  0.46977  Biso   1.000  H
  O12      1.0000 0.04499  0.31931  0.67344  Biso   1.000  O
  H67      1.0000 0.10418  0.37750  0.78702  Biso   1.000  H
  H68      1.0000 0.13813  0.30391  0.81052  Biso   1.000  H
  C35      1.0000 0.02319  0.09401  0.59387  Biso   1.000  C
  H69      1.0000 0.05182  0.17369  0.68142  Biso   1.000  H
  H70      1.0000 0.92744  0.14582  0.65799  Biso   1.000  H
  C36      1.0000 0.94675  0.28949  0.68279  Biso   1.000  C
  H71      1.0000 0.81119  0.23900  0.59561  Biso   1.000  H
  H72      1.0000 0.85612  0.29178  0.53948  Biso   1.000  H
  H73      1.0000 0.01769  0.05790  0.63500  Biso   1.000  H
  H74      1.0000 0.97293  0.08509  0.52852  Biso   1.000  H
  H75      1.0000 0.96898  0.25688  0.73378  Biso   1.000  H
  H76      1.0000 0.89960  0.32190  0.70020  Biso   1.000  H
  C37      1.0000 0.71150  0.55670  0.95079  Biso   1.000  C
  O13      1.0000 0.69184  0.61748  0.98988  Biso   1.000  O
  C38      1.0000 0.83352  0.55129  0.96254  Biso   1.000  C
  H77      1.0000 0.68904  0.52108  0.98437  Biso   1.000  H
  H78      1.0000 0.66612  0.55412  0.88261  Biso   1.000  H
  C39      1.0000 0.57402  0.62791  0.97168  Biso   1.000  C
  O14      1.0000 0.86263  0.60022  0.90531  Biso   1.000  O
  H79      1.0000 0.84965  0.50850  0.94201  Biso   1.000  H
  H80      1.0000 0.87907  0.55700  0.03014  Biso   1.000  H
  H81      1.0000 0.53255  0.62250  0.90314  Biso   1.000  H
  C40      1.0000 0.55616  0.69599  0.00294  Biso   1.000  C
  H82      1.0000 0.54493  0.59642  0.00715  Biso   1.000  H
  C41      1.0000 0.97682  0.59399  0.90611  Biso   1.000  C
  N5       1.0000 0.54139  0.74638  0.92620  Biso   1.000  N
  H83      1.0000 0.62162  0.70769  0.05886  Biso   1.000  H
  H84      1.0000 0.48876  0.69609  0.02325  Biso   1.000  H
  H85      1.0000 0.98232  0.55792  0.86499  Biso   1.000  H
  C42      1.0000 0.01318  0.65588  0.86977  Biso   1.000  C
  H86      1.0000 0.02711  0.58512  0.97153  Biso   1.000  H
  C43      1.0000 0.50303  0.81061  0.95703  Biso   1.000  C
  C44      1.0000 0.64305  0.75028  0.89240  Biso   1.000  C
  H87      1.0000 0.47072  0.73132  0.86129  Biso   1.000  H
  H88      1.0000 0.94819  0.67372  0.81857  Biso   1.000  H
  N6       1.0000 0.05739  0.70622  0.94658  Biso   1.000  N
  H89      1.0000 0.07265  0.64579  0.84200  Biso   1.000  H
  H90      1.0000 0.42782  0.80462  0.96312  Biso   1.000  H
  H91      1.0000 0.49521  0.84239  0.90604  Biso   1.000  H
  C45      1.0000 0.58212  0.83820  0.05081  Biso   1.000  C
  C46      1.0000 0.62653  0.79731  0.81161  Biso   1.000  C
  H92      1.0000 0.65796  0.70739  0.87123  Biso   1.000  H
  H93      1.0000 0.70964  0.76310  0.94644  Biso   1.000  H
  C47      1.0000 0.96555  0.72981  0.98481  Biso   1.000  C
  C48      1.0000 0.12005  0.75808  0.91119  Biso   1.000  C
  H94      1.0000 0.12279  0.68161  0.00671  Biso   1.000  H
  O15      1.0000 0.68681  0.85491  0.03993  Biso   1.000  O
  H95      1.0000 0.59447  0.80608  0.10201  Biso   1.000  H
  H96      1.0000 0.54748  0.87641  0.06872  Biso   1.000  H
  O16      1.0000 0.71976  0.78951  0.77592  Biso   1.000  O
  H97      1.0000 0.62491  0.84151  0.83467  Biso   1.000  H
  H98      1.0000 0.55451  0.78878  0.76047  Biso   1.000  H
  H99      1.0000 0.89914  0.74248  0.93041  Biso   1.000  H
  H100     1.0000 0.94262  0.69409  0.01781  Biso   1.000  H
  C49      1.0000 0.00083  0.78610  0.05284  Biso   1.000  C
  C50      1.0000 0.05334  0.78951  0.81719  Biso   1.000  C
  H101     1.0000 0.18882  0.73902  0.90437  Biso   1.000  H
  H102     1.0000 0.14389  0.79180  0.96051  Biso   1.000  H
  C51      1.0000 0.77851  0.86530  0.12740  Biso   1.000  C
  C52      1.0000 0.76253  0.84941  0.75641  Biso   1.000  C
  O17      1.0000 0.90722  0.79648  0.08736  Biso   1.000  O
  H103     1.0000 0.01452  0.82441  0.01940  Biso   1.000  H
  H104     1.0000 0.07013  0.77592  0.10593  Biso   1.000  H
  O18      1.0000 0.95505  0.81929  0.82662  Biso   1.000  O
  H105     1.0000 0.03103  0.75691  0.76620  Biso   1.000  H
  H106     1.0000 0.10041  0.82192  0.79978  Biso   1.000  H
  C53      1.0000 0.88758  0.86159  0.10492  Biso   1.000  C
  H107     1.0000 0.77112  0.90770  0.15416  Biso   1.000  H
  H108     1.0000 0.77762  0.83220  0.17476  Biso   1.000  H
  C54      1.0000 0.87175  0.83800  0.73741  Biso   1.000  C
  H109     1.0000 0.70733  0.86978  0.70042  Biso   1.000  H
  H110     1.0000 0.77560  0.87841  0.81153  Biso   1.000  H
  H111     1.0000 0.95061  0.87811  0.15917  Biso   1.000  H
  H112     1.0000 0.88174  0.88791  0.04820  Biso   1.000  H
  H113     1.0000 0.89586  0.87748  0.71304  Biso   1.000  H
  H114     1.0000 0.86191  0.80389  0.68954  Biso   1.000  H
  C55      1.0000 0.28847  0.44330  0.04918  Biso   1.000  C
  O19      1.0000 0.30822  0.38252  0.01008  Biso   1.000  O
  C56      1.0000 0.16648  0.44871  0.03750  Biso   1.000  C
  H115     1.0000 0.31101  0.47892  0.01559  Biso   1.000  H
  H116     1.0000 0.33388  0.44588  0.11743  Biso   1.000  H
  C57      1.0000 0.42603  0.37209  0.02829  Biso   1.000  C
  O20      1.0000 0.13745  0.39978  0.09472  Biso   1.000  O
  H117     1.0000 0.15043  0.49150  0.05802  Biso   1.000  H
  H118     1.0000 0.12093  0.44300  0.96990  Biso   1.000  H
  C58      1.0000 0.44384  0.30401  0.99710  Biso   1.000  C
  H119     1.0000 0.46753  0.37750  0.09690  Biso   1.000  H
  H120     1.0000 0.45515  0.40358  0.99289  Biso   1.000  H
  C59      1.0000 0.02318  0.40601  0.09393  Biso   1.000  C
  N7       1.0000 0.45861  0.25362  0.07384  Biso   1.000  N
  H121     1.0000 0.37846  0.29231  0.94118  Biso   1.000  H
  H122     1.0000 0.51124  0.30391  0.97679  Biso   1.000  H
  C60      1.0000 0.98679  0.34412  0.13019  Biso   1.000  C
  H123     1.0000 0.01773  0.44208  0.13498  Biso   1.000  H
  H124     1.0000 0.97289  0.41488  0.02850  Biso   1.000  H
  C61      1.0000 0.35703  0.24972  0.10763  Biso   1.000  C
  C62      1.0000 0.49697  0.18939  0.04301  Biso   1.000  C
  H125     1.0000 0.52925  0.26868  0.13868  Biso   1.000  H
  N8       1.0000 0.94258  0.29378  0.05338  Biso   1.000  N
  H126     1.0000 0.05178  0.32628  0.18140  Biso   1.000  H
  H127     1.0000 0.92740  0.35421  0.15797  Biso   1.000  H
  C63      1.0000 0.37355  0.20269  0.18843  Biso   1.000  C
  H128     1.0000 0.34212  0.29261  0.12881  Biso   1.000  H
  H129     1.0000 0.29044  0.23690  0.05360  Biso   1.000  H
  H130     1.0000 0.57218  0.19538  0.03692  Biso   1.000  H
  H131     1.0000 0.50479  0.15761  0.09400  Biso   1.000  H
  C64      1.0000 0.41793  0.16180  0.94916  Biso   1.000  C
  C65      1.0000 0.88001  0.24192  0.08878  Biso   1.000  C
  C66      1.0000 0.03453  0.27019  0.01523  Biso   1.000  C
  H132     1.0000 0.87726  0.31839  0.99325  Biso   1.000  H
  O21      1.0000 0.28032  0.21049  0.22412  Biso   1.000  O
  H133     1.0000 0.37514  0.15849  0.16529  Biso   1.000  H
  H134     1.0000 0.44554  0.21122  0.23949  Biso   1.000  H
  O22      1.0000 0.31324  0.14509  0.96004  Biso   1.000  O
  H135     1.0000 0.40550  0.19392  0.89795  Biso   1.000  H
  H136     1.0000 0.45249  0.12359  0.93124  Biso   1.000  H
  C67      1.0000 0.94671  0.21049  0.18277  Biso   1.000  C
  H137     1.0000 0.81123  0.26098  0.09559  Biso   1.000  H
  H138     1.0000 0.85610  0.20820  0.03953  Biso   1.000  H
  H139     1.0000 0.10094  0.25752  0.06963  Biso   1.000  H
  C68      1.0000 0.99925  0.21390  0.94720  Biso   1.000  C
  H140     1.0000 0.05743  0.30591  0.98216  Biso   1.000  H
  C69      1.0000 0.23755  0.15059  0.24363  Biso   1.000  C
  C70      1.0000 0.22155  0.13470  0.87257  Biso   1.000  C
  O23      1.0000 0.04503  0.18071  0.17342  Biso   1.000  O
  H141     1.0000 0.96905  0.24309  0.23384  Biso   1.000  H
  H142     1.0000 0.89956  0.17808  0.20018  Biso   1.000  H
  O24      1.0000 0.09286  0.20352  0.91267  Biso   1.000  O
  H143     1.0000 0.98554  0.17559  0.98056  Biso   1.000  H
  H144     1.0000 0.92995  0.22408  0.89411  Biso   1.000  H
  C71      1.0000 0.12833  0.16200  0.26263  Biso   1.000  C
  H145     1.0000 0.29275  0.13022  0.29962  Biso   1.000  H
  H146     1.0000 0.22440  0.12159  0.18850  Biso   1.000  H
  C72      1.0000 0.11239  0.13841  0.89505  Biso   1.000  C
  H147     1.0000 0.22896  0.09230  0.84587  Biso   1.000  H
  H148     1.0000 0.22246  0.16780  0.82528  Biso   1.000  H
  H149     1.0000 0.10422  0.12252  0.28700  Biso   1.000  H
  H150     1.0000 0.13809  0.19611  0.31050  Biso   1.000  H
  H151     1.0000 0.04939  0.12189  0.84087  Biso   1.000  H
  H152     1.0000 0.11823  0.11209  0.95177  Biso   1.000  H
  Ne1      1.0000 0.19688  0.25819  0.06287  Biso   1.000  Ne
  He1      1.0000 0.20675  0.31575  0.06490  Biso   1.000  He
  He2      1.0000 0.19880  0.23973  0.07236  Biso   1.000  He
  He3      1.0000 0.20588  0.31265  0.08108  Biso   1.000  He
  Ar1      1.0000 0.19676  0.26456  0.05339  Biso   1.000  Ar
  Ne2      1.0000 0.19687  0.24181  0.56284  Biso   1.000  Ne
  He4      1.0000 0.20642  0.18566  0.57234  Biso   1.000  He
  He5      1.0000 0.18720  0.25513  0.54582  Biso   1.000  He
  He6      1.0000 0.20609  0.18691  0.57886  Biso   1.000  He
  Ar2      1.0000 0.19680  0.23541  0.55355  Biso   1.000  Ar
  Ne3      1.0000 0.80315  0.75819  0.43716  Biso   1.000  Ne
  He7      1.0000 0.79373  0.81153  0.46518  Biso   1.000  He
  He8      1.0000 0.81347  0.74327  0.45463  Biso   1.000  He
  He9      1.0000 0.79364  0.81214  0.46331  Biso   1.000  He
  Ar3      1.0000 0.80325  0.76457  0.44657  Biso   1.000  Ar
  Ne4      1.0000 0.80317  0.74181  0.93714  Biso   1.000  Ne
  He10     1.0000 0.79341  0.68607  0.95787  Biso   1.000  He
  He11     1.0000 0.81281  0.75497  0.95424  Biso   1.000  He
  He12     1.0000 0.79453  0.69308  0.97966  Biso   1.000  He
  Ar4      1.0000 0.80331  0.73543  0.94664  Biso   1.000  Ar
