data_image0
_cell_length_a       27.067
_cell_length_b       23.017
_cell_length_c       15.385
_cell_angle_alpha    90
_cell_angle_beta     122.08
_cell_angle_gamma    90

_symmetry_space_group_name_H-M    "P 1"
_symmetry_int_tables_number       1

loop_
  _symmetry_equiv_pos_as_xyz
  'x, y, z'

loop_
  _atom_site_label
  _atom_site_occupancy
  _atom_site_fract_x
  _atom_site_fract_y
  _atom_site_fract_z
  _atom_site_thermal_displace_type
  _atom_site_B_iso_or_equiv
  _atom_site_type_symbol
  C1       1.0000 0.57911  0.19816  0.59452  Biso   1.000  C
  C2       1.0000 0.62789  0.22249  0.59835  Biso   1.000  C
  H1       1.0000 0.55137  0.17600  0.53675  Biso   1.000  H
  C3       1.0000 0.57220  0.20715  0.67698  Biso   1.000  C
  C4       1.0000 0.63386  0.21936  0.50699  Biso   1.000  C
  C5       1.0000 0.66812  0.25351  0.68289  Biso   1.000  C
  C6       1.0000 0.61226  0.23965  0.76136  Biso   1.000  C
  H2       1.0000 0.53949  0.19082  0.67537  Biso   1.000  H
  C7       1.0000 0.59448  0.25094  0.41915  Biso   1.000  C
  C8       1.0000 0.68177  0.19216  0.51236  Biso   1.000  C
  C9       1.0000 0.66116  0.26281  0.76620  Biso   1.000  C
  H3       1.0000 0.70138  0.26902  0.68527  Biso   1.000  H
  H4       1.0000 0.60628  0.24608  0.81621  Biso   1.000  H
  C10      1.0000 0.60327  0.25755  0.33761  Biso   1.000  C
  H5       1.0000 0.56128  0.26819  0.41478  Biso   1.000  H
  C11      1.0000 0.68909  0.19638  0.42890  Biso   1.000  C
  C12      1.0000 0.72295  0.15754  0.60142  Biso   1.000  C
  C13      1.0000 0.70217  0.30060  0.85250  Biso   1.000  C
  C14      1.0000 0.56683  0.29917  0.25522  Biso   1.000  C
  C15      1.0000 0.65080  0.22909  0.34367  Biso   1.000  C
  H6       1.0000 0.72050  0.17670  0.43089  Biso   1.000  H
  O1       1.0000 0.76867  0.13885  0.61492  Biso   1.000  O
  H7       1.0000 0.71357  0.14911  0.65136  Biso   1.000  H
  C16      1.0000 0.76279  0.28970  0.91770  Biso   1.000  C
  C17      1.0000 0.68027  0.35204  0.86769  Biso   1.000  C
  C18      1.0000 0.50747  0.29013  0.18672  Biso   1.000  C
  C19      1.0000 0.59221  0.35048  0.24740  Biso   1.000  C
  C20      1.0000 0.66039  0.23139  0.25721  Biso   1.000  C
  C21      1.0000 0.79667  0.32876  0.99541  Biso   1.000  C
  C22      1.0000 0.79023  0.23622  0.91018  Biso   1.000  C
  H8       1.0000 0.63979  0.35999  0.82427  Biso   1.000  H
  C23      1.0000 0.71505  0.39184  0.94348  Biso   1.000  C
  H9       1.0000 0.48920  0.25581  0.19071  Biso   1.000  H
  C24      1.0000 0.47507  0.33184  0.11231  Biso   1.000  C
  C25      1.0000 0.55995  0.39206  0.17467  Biso   1.000  C
  H10      1.0000 0.63280  0.35669  0.29373  Biso   1.000  H
  O2       1.0000 0.70331  0.21215  0.26197  Biso   1.000  O
  H11      1.0000 0.63119  0.24890  0.19477  Biso   1.000  H
  C26      1.0000 0.77370  0.37833  0.00999  Biso   1.000  C
  H12      1.0000 0.83706  0.32098  0.03998  Biso   1.000  H
  O3       1.0000 0.84122  0.22596  0.96258  Biso   1.000  O
  H13      1.0000 0.76588  0.20811  0.86047  Biso   1.000  H
  C27      1.0000 0.68805  0.44754  0.94524  Biso   1.000  C
  C28      1.0000 0.50072  0.38311  0.10832  Biso   1.000  C
  H14      1.0000 0.43489  0.32519  0.06367  Biso   1.000  H
  C29      1.0000 0.58837  0.44650  0.17076  Biso   1.000  C
  C30      1.0000 0.81353  0.41439  0.10350  Biso   1.000  C
  C31      1.0000 0.63363  0.44797  0.93335  Biso   1.000  C
  C32      1.0000 0.71555  0.50002  0.95115  Biso   1.000  C
  H15      1.0000 0.47751  0.41222  0.05968  Biso   1.000  H
  C33      1.0000 0.56311  0.49998  0.16861  Biso   1.000  C
  C34      1.0000 0.64130  0.44741  0.17490  Biso   1.000  C
  O4       1.0000 0.86493  0.40905  0.15336  Biso   1.000  O
  H16      1.0000 0.79639  0.44319  0.12360  Biso   1.000  H
  H17      1.0000 0.61508  0.41222  0.92967  Biso   1.000  H
  C35      1.0000 0.60559  0.50002  0.92698  Biso   1.000  C
  H18      1.0000 0.75287  0.50002  0.95936  Biso   1.000  H
  C36      1.0000 0.68805  0.55246  0.94524  Biso   1.000  C
  H19      1.0000 0.52700  0.49998  0.16539  Biso   1.000  H
  C37      1.0000 0.58837  0.55350  0.17076  Biso   1.000  C
  C38      1.0000 0.66679  0.49998  0.17659  Biso   1.000  C
  C39      1.0000 0.66965  0.39362  0.16600  Biso   1.000  C
  H20      1.0000 0.56819  0.50002  0.91839  Biso   1.000  H
  C40      1.0000 0.63363  0.55203  0.93335  Biso   1.000  C
  C41      1.0000 0.71505  0.60816  0.94348  Biso   1.000  C
  C42      1.0000 0.64130  0.55259  0.17490  Biso   1.000  C
  C43      1.0000 0.55995  0.60794  0.17467  Biso   1.000  C
  H21      1.0000 0.70260  0.49998  0.17897  Biso   1.000  H
  O5       1.0000 0.71676  0.39423  0.17460  Biso   1.000  O
  H22      1.0000 0.64979  0.35761  0.15296  Biso   1.000  H
  H23      1.0000 0.61508  0.58778  0.92967  Biso   1.000  H
  C44      1.0000 0.68027  0.64796  0.86769  Biso   1.000  C
  C45      1.0000 0.77370  0.62167  0.00999  Biso   1.000  C
  C46      1.0000 0.66965  0.60638  0.16600  Biso   1.000  C
  C47      1.0000 0.50072  0.61689  0.10832  Biso   1.000  C
  C48      1.0000 0.59221  0.64952  0.24740  Biso   1.000  C
  C49      1.0000 0.70217  0.69940  0.85250  Biso   1.000  C
  H24      1.0000 0.63979  0.64001  0.82427  Biso   1.000  H
  C50      1.0000 0.79667  0.67124  0.99541  Biso   1.000  C
  C51      1.0000 0.81353  0.58561  0.10350  Biso   1.000  C
  O6       1.0000 0.71676  0.60577  0.17460  Biso   1.000  O
  H25      1.0000 0.64979  0.64239  0.15296  Biso   1.000  H
  H26      1.0000 0.47751  0.58778  0.05968  Biso   1.000  H
  C52      1.0000 0.47507  0.66816  0.11231  Biso   1.000  C
  C53      1.0000 0.56683  0.70083  0.25522  Biso   1.000  C
  H27      1.0000 0.63280  0.64331  0.29373  Biso   1.000  H
  C54      1.0000 0.66116  0.73719  0.76620  Biso   1.000  C
  C55      1.0000 0.76279  0.71030  0.91770  Biso   1.000  C
  H28      1.0000 0.83706  0.67902  0.03998  Biso   1.000  H
  O7       1.0000 0.86493  0.59095  0.15336  Biso   1.000  O
  H29      1.0000 0.79639  0.55681  0.12360  Biso   1.000  H
  C56      1.0000 0.50747  0.70987  0.18672  Biso   1.000  C
  H30      1.0000 0.43489  0.67481  0.06367  Biso   1.000  H
  C57      1.0000 0.60327  0.74245  0.33761  Biso   1.000  C
  C58      1.0000 0.66812  0.74649  0.68289  Biso   1.000  C
  C59      1.0000 0.61226  0.76035  0.76136  Biso   1.000  C
  C60      1.0000 0.79023  0.76378  0.91018  Biso   1.000  C
  H31      1.0000 0.48920  0.74419  0.19071  Biso   1.000  H
  C61      1.0000 0.65080  0.77091  0.34367  Biso   1.000  C
  C62      1.0000 0.59448  0.74906  0.41915  Biso   1.000  C
  C63      1.0000 0.62789  0.77751  0.59835  Biso   1.000  C
  H32      1.0000 0.70138  0.73098  0.68527  Biso   1.000  H
  C64      1.0000 0.57220  0.79285  0.67698  Biso   1.000  C
  H33      1.0000 0.60628  0.75392  0.81621  Biso   1.000  H
  O8       1.0000 0.84122  0.77404  0.96258  Biso   1.000  O
  H34      1.0000 0.76588  0.79189  0.86047  Biso   1.000  H
  C65      1.0000 0.68909  0.80362  0.42890  Biso   1.000  C
  C66      1.0000 0.66039  0.76861  0.25721  Biso   1.000  C
  H35      1.0000 0.56128  0.73181  0.41478  Biso   1.000  H
  C67      1.0000 0.63386  0.78064  0.50699  Biso   1.000  C
  C68      1.0000 0.57911  0.80184  0.59452  Biso   1.000  C
  H36      1.0000 0.53949  0.80918  0.67537  Biso   1.000  H
  C69      1.0000 0.68177  0.80784  0.51236  Biso   1.000  C
  H37      1.0000 0.72050  0.82330  0.43089  Biso   1.000  H
  O9       1.0000 0.70331  0.78785  0.26197  Biso   1.000  O
  H38      1.0000 0.63119  0.75110  0.19477  Biso   1.000  H
  H39      1.0000 0.55137  0.82400  0.53675  Biso   1.000  H
  C70      1.0000 0.72295  0.84246  0.60142  Biso   1.000  C
  O10      1.0000 0.76867  0.86115  0.61492  Biso   1.000  O
  H40      1.0000 0.71357  0.85089  0.65136  Biso   1.000  H
  C71      1.0000 0.42089  0.19816  0.40550  Biso   1.000  C
  C72      1.0000 0.37205  0.22249  0.40159  Biso   1.000  C
  C73      1.0000 0.42775  0.20715  0.32296  Biso   1.000  C
  H41      1.0000 0.44858  0.17600  0.46319  Biso   1.000  H
  C74      1.0000 0.33189  0.25351  0.31713  Biso   1.000  C
  C75      1.0000 0.36615  0.21936  0.49303  Biso   1.000  C
  C76      1.0000 0.38772  0.23965  0.23857  Biso   1.000  C
  H42      1.0000 0.46049  0.19082  0.32457  Biso   1.000  H
  C77      1.0000 0.33885  0.26281  0.23382  Biso   1.000  C
  H43      1.0000 0.29860  0.26902  0.31467  Biso   1.000  H
  C78      1.0000 0.31821  0.19216  0.48758  Biso   1.000  C
  C79      1.0000 0.40550  0.25094  0.58078  Biso   1.000  C
  H44      1.0000 0.39368  0.24608  0.18380  Biso   1.000  H
  C80      1.0000 0.29783  0.30060  0.14752  Biso   1.000  C
  C81      1.0000 0.31092  0.19638  0.57112  Biso   1.000  C
  C82      1.0000 0.27705  0.15754  0.39859  Biso   1.000  C
  C83      1.0000 0.39670  0.25755  0.66241  Biso   1.000  C
  H45      1.0000 0.43866  0.26819  0.58516  Biso   1.000  H
  C84      1.0000 0.23721  0.28970  0.08231  Biso   1.000  C
  C85      1.0000 0.31973  0.35204  0.13233  Biso   1.000  C
  C86      1.0000 0.34915  0.22909  0.65627  Biso   1.000  C
  H46      1.0000 0.27950  0.17670  0.56912  Biso   1.000  H
  O11      1.0000 0.23134  0.13885  0.38509  Biso   1.000  O
  H47      1.0000 0.28637  0.14911  0.34858  Biso   1.000  H
  C87      1.0000 0.43317  0.29917  0.74479  Biso   1.000  C
  C88      1.0000 0.20330  0.32876  0.00460  Biso   1.000  C
  C89      1.0000 0.20978  0.23622  0.08983  Biso   1.000  C
  H48      1.0000 0.36020  0.35999  0.17567  Biso   1.000  H
  C90      1.0000 0.28496  0.39184  0.05654  Biso   1.000  C
  C91      1.0000 0.33962  0.23139  0.74280  Biso   1.000  C
  C92      1.0000 0.49254  0.29013  0.81330  Biso   1.000  C
  C93      1.0000 0.40775  0.35048  0.75262  Biso   1.000  C
  C94      1.0000 0.22627  0.37833  0.99003  Biso   1.000  C
  H49      1.0000 0.16291  0.32098  0.96003  Biso   1.000  H
  O12      1.0000 0.15879  0.22596  0.03744  Biso   1.000  O
  H50      1.0000 0.23407  0.20811  0.13946  Biso   1.000  H
  C95      1.0000 0.31189  0.44754  0.05470  Biso   1.000  C
  O13      1.0000 0.29667  0.21215  0.73797  Biso   1.000  O
  H51      1.0000 0.36879  0.24890  0.80517  Biso   1.000  H
  H52      1.0000 0.51080  0.25581  0.80931  Biso   1.000  H
  C96      1.0000 0.52494  0.33184  0.88771  Biso   1.000  C
  C97      1.0000 0.44003  0.39206  0.82526  Biso   1.000  C
  H53      1.0000 0.36717  0.35669  0.70628  Biso   1.000  H
  C98      1.0000 0.18648  0.41439  0.89652  Biso   1.000  C
  C99      1.0000 0.36635  0.44797  0.06659  Biso   1.000  C
  C100     1.0000 0.28439  0.49998  0.04879  Biso   1.000  C
  C101     1.0000 0.49928  0.38311  0.89170  Biso   1.000  C
  H54      1.0000 0.56509  0.32519  0.93627  Biso   1.000  H
  C102     1.0000 0.41162  0.44650  0.82918  Biso   1.000  C
  O14      1.0000 0.13505  0.40905  0.84658  Biso   1.000  O
  H55      1.0000 0.20361  0.44319  0.87642  Biso   1.000  H
  H56      1.0000 0.38490  0.41222  0.07027  Biso   1.000  H
  C103     1.0000 0.39442  0.49998  0.07303  Biso   1.000  C
  H57      1.0000 0.24708  0.49998  0.04058  Biso   1.000  H
  C104     1.0000 0.31189  0.55246  0.05470  Biso   1.000  C
  H58      1.0000 0.52248  0.41222  0.94026  Biso   1.000  H
  C105     1.0000 0.43689  0.50002  0.83140  Biso   1.000  C
  C106     1.0000 0.35870  0.44741  0.82511  Biso   1.000  C
  H59      1.0000 0.43181  0.49998  0.08162  Biso   1.000  H
  C107     1.0000 0.36635  0.55203  0.06659  Biso   1.000  C
  C108     1.0000 0.28496  0.60816  0.05654  Biso   1.000  C
  H60      1.0000 0.47298  0.50002  0.83455  Biso   1.000  H
  C109     1.0000 0.41162  0.55350  0.82918  Biso   1.000  C
  C110     1.0000 0.33316  0.50002  0.82335  Biso   1.000  C
  C111     1.0000 0.33035  0.39362  0.83401  Biso   1.000  C
  H61      1.0000 0.38490  0.58778  0.07027  Biso   1.000  H
  C112     1.0000 0.31973  0.64796  0.13233  Biso   1.000  C
  C113     1.0000 0.22627  0.62167  0.99003  Biso   1.000  C
  C114     1.0000 0.35870  0.55259  0.82511  Biso   1.000  C
  C115     1.0000 0.44003  0.60794  0.82526  Biso   1.000  C
  H62      1.0000 0.29738  0.50002  0.82097  Biso   1.000  H
  O15      1.0000 0.28324  0.39423  0.82542  Biso   1.000  O
  H63      1.0000 0.35019  0.35761  0.84697  Biso   1.000  H
  C116     1.0000 0.29783  0.69940  0.14752  Biso   1.000  C
  H64      1.0000 0.36020  0.64001  0.17567  Biso   1.000  H
  C117     1.0000 0.20330  0.67124  0.00460  Biso   1.000  C
  C118     1.0000 0.18648  0.58561  0.89652  Biso   1.000  C
  C119     1.0000 0.33035  0.60638  0.83401  Biso   1.000  C
  C120     1.0000 0.49928  0.61689  0.89170  Biso   1.000  C
  C121     1.0000 0.40775  0.64952  0.75262  Biso   1.000  C
  C122     1.0000 0.33885  0.73719  0.23382  Biso   1.000  C
  C123     1.0000 0.23721  0.71030  0.08231  Biso   1.000  C
  H65      1.0000 0.16291  0.67902  0.96003  Biso   1.000  H
  O16      1.0000 0.13505  0.59095  0.84658  Biso   1.000  O
  H66      1.0000 0.20361  0.55681  0.87642  Biso   1.000  H
  O17      1.0000 0.28324  0.60577  0.82542  Biso   1.000  O
  H67      1.0000 0.35019  0.64239  0.84697  Biso   1.000  H
  H68      1.0000 0.52248  0.58778  0.94026  Biso   1.000  H
  C124     1.0000 0.52494  0.66816  0.88771  Biso   1.000  C
  C125     1.0000 0.43317  0.70083  0.74479  Biso   1.000  C
  H69      1.0000 0.36717  0.64331  0.70628  Biso   1.000  H
  C126     1.0000 0.33189  0.74649  0.31713  Biso   1.000  C
  C127     1.0000 0.38772  0.76035  0.23857  Biso   1.000  C
  C128     1.0000 0.20978  0.76378  0.08983  Biso   1.000  C
  C129     1.0000 0.49254  0.70987  0.81330  Biso   1.000  C
  H70      1.0000 0.56509  0.67481  0.93627  Biso   1.000  H
  C130     1.0000 0.39670  0.74245  0.66241  Biso   1.000  C
  H71      1.0000 0.29860  0.73098  0.31467  Biso   1.000  H
  C131     1.0000 0.37205  0.77751  0.40159  Biso   1.000  C
  H72      1.0000 0.39368  0.75392  0.18380  Biso   1.000  H
  C132     1.0000 0.42775  0.79285  0.32296  Biso   1.000  C
  O18      1.0000 0.15879  0.77404  0.03744  Biso   1.000  O
  H73      1.0000 0.23407  0.79189  0.13946  Biso   1.000  H
  H74      1.0000 0.51080  0.74419  0.80931  Biso   1.000  H
  C133     1.0000 0.40550  0.74906  0.58078  Biso   1.000  C
  C134     1.0000 0.34915  0.77091  0.65627  Biso   1.000  C
  C135     1.0000 0.36615  0.78064  0.49303  Biso   1.000  C
  C136     1.0000 0.42089  0.80184  0.40550  Biso   1.000  C
  H75      1.0000 0.46049  0.80918  0.32457  Biso   1.000  H
  H76      1.0000 0.43866  0.73181  0.58516  Biso   1.000  H
  C137     1.0000 0.31092  0.80362  0.57112  Biso   1.000  C
  C138     1.0000 0.33962  0.76861  0.74280  Biso   1.000  C
  C139     1.0000 0.31821  0.80784  0.48758  Biso   1.000  C
  H77      1.0000 0.44858  0.82400  0.46319  Biso   1.000  H
  H78      1.0000 0.27950  0.82330  0.56912  Biso   1.000  H
  O19      1.0000 0.29667  0.78785  0.73797  Biso   1.000  O
  H79      1.0000 0.36879  0.75110  0.80517  Biso   1.000  H
  C140     1.0000 0.27705  0.84246  0.39859  Biso   1.000  C
  O20      1.0000 0.23134  0.86115  0.38509  Biso   1.000  O
  H80      1.0000 0.28637  0.85089  0.34858  Biso   1.000  H
  O21      1.0000 0.78322  0.10579  0.82542  Biso   1.000  O
  C141     1.0000 0.83034  0.10640  0.83401  Biso   1.000  C
  C142     1.0000 0.85868  0.05261  0.82511  Biso   1.000  C
  H81      1.0000 0.85017  0.14242  0.84697  Biso   1.000  H
  C143     1.0000 0.91160  0.05348  0.82918  Biso   1.000  C
  C144     1.0000 0.83318  0.00000  0.82335  Biso   1.000  C
  C145     1.0000 0.94001  0.10796  0.82526  Biso   1.000  C
  C146     1.0000 0.93687  0.00000  0.83140  Biso   1.000  C
  C147     1.0000 0.85868  0.94739  0.82511  Biso   1.000  C
  H82      1.0000 0.79736  0.00000  0.82097  Biso   1.000  H
  C148     1.0000 0.90777  0.14954  0.75262  Biso   1.000  C
  C149     1.0000 0.99926  0.11687  0.89170  Biso   1.000  C
  H83      1.0000 0.97296  0.00000  0.83455  Biso   1.000  H
  C150     1.0000 0.91160  0.94652  0.82918  Biso   1.000  C
  C151     1.0000 0.83034  0.89360  0.83401  Biso   1.000  C
  C152     1.0000 0.93316  0.20085  0.74479  Biso   1.000  C
  H84      1.0000 0.86718  0.14329  0.70628  Biso   1.000  H
  C153     1.0000 0.02496  0.16818  0.88771  Biso   1.000  C
  H85      1.0000 0.02246  0.08780  0.94026  Biso   1.000  H
  C154     1.0000 0.94001  0.89204  0.82526  Biso   1.000  C
  O22      1.0000 0.78322  0.89421  0.82542  Biso   1.000  O
  H86      1.0000 0.85017  0.85758  0.84697  Biso   1.000  H
  C155     1.0000 0.89672  0.24243  0.66241  Biso   1.000  C
  C156     1.0000 0.99252  0.20989  0.81330  Biso   1.000  C
  H87      1.0000 0.06507  0.17478  0.93627  Biso   1.000  H
  C157     1.0000 0.99926  0.88313  0.89170  Biso   1.000  C
  C158     1.0000 0.90777  0.85046  0.75262  Biso   1.000  C
  C159     1.0000 0.90548  0.24908  0.58078  Biso   1.000  C
  C160     1.0000 0.84917  0.27093  0.65627  Biso   1.000  C
  H88      1.0000 0.01078  0.24421  0.80931  Biso   1.000  H
  H89      1.0000 0.02246  0.91220  0.94026  Biso   1.000  H
  C161     1.0000 0.02496  0.83182  0.88771  Biso   1.000  C
  C162     1.0000 0.93316  0.79915  0.74479  Biso   1.000  C
  H90      1.0000 0.86718  0.85671  0.70628  Biso   1.000  H
  C163     1.0000 0.86613  0.28066  0.49303  Biso   1.000  C
  H91      1.0000 0.93868  0.23179  0.58516  Biso   1.000  H
  C164     1.0000 0.81090  0.30360  0.57112  Biso   1.000  C
  C165     1.0000 0.83960  0.26863  0.74280  Biso   1.000  C
  C166     1.0000 0.99252  0.79011  0.81330  Biso   1.000  C
  H92      1.0000 0.06507  0.82522  0.93627  Biso   1.000  H
  C167     1.0000 0.89672  0.75757  0.66241  Biso   1.000  C
  C168     1.0000 0.81819  0.30786  0.48758  Biso   1.000  C
  C169     1.0000 0.87207  0.27753  0.40159  Biso   1.000  C
  H93      1.0000 0.77949  0.32328  0.56912  Biso   1.000  H
  O23      1.0000 0.79665  0.28787  0.73797  Biso   1.000  O
  H94      1.0000 0.86877  0.25112  0.80517  Biso   1.000  H
  H95      1.0000 0.01078  0.75579  0.80931  Biso   1.000  H
  C170     1.0000 0.84917  0.72907  0.65627  Biso   1.000  C
  C171     1.0000 0.90548  0.75092  0.58078  Biso   1.000  C
  C172     1.0000 0.77703  0.34244  0.39859  Biso   1.000  C
  C173     1.0000 0.83187  0.24651  0.31713  Biso   1.000  C
  C174     1.0000 0.92088  0.30186  0.40550  Biso   1.000  C
  C175     1.0000 0.81090  0.69640  0.57112  Biso   1.000  C
  C176     1.0000 0.83960  0.73137  0.74280  Biso   1.000  C
  H96      1.0000 0.93868  0.76821  0.58516  Biso   1.000  H
  C177     1.0000 0.86613  0.71934  0.49303  Biso   1.000  C
  O24      1.0000 0.73132  0.36117  0.38509  Biso   1.000  O
  H97      1.0000 0.78639  0.35091  0.34858  Biso   1.000  H
  C178     1.0000 0.83883  0.23717  0.23382  Biso   1.000  C
  H98      1.0000 0.79858  0.23100  0.31467  Biso   1.000  H
  H99      1.0000 0.94860  0.32402  0.46319  Biso   1.000  H
  C179     1.0000 0.92777  0.29283  0.32296  Biso   1.000  C
  C180     1.0000 0.81819  0.69214  0.48758  Biso   1.000  C
  H100     1.0000 0.77949  0.67672  0.56912  Biso   1.000  H
  O25      1.0000 0.79665  0.71213  0.73797  Biso   1.000  O
  H101     1.0000 0.86877  0.74888  0.80517  Biso   1.000  H
  C181     1.0000 0.87207  0.72247  0.40159  Biso   1.000  C
  C182     1.0000 0.79781  0.19937  0.14752  Biso   1.000  C
  C183     1.0000 0.88770  0.26033  0.23857  Biso   1.000  C
  H102     1.0000 0.96047  0.30921  0.32457  Biso   1.000  H
  C184     1.0000 0.77703  0.65756  0.39859  Biso   1.000  C
  C185     1.0000 0.83187  0.75349  0.31713  Biso   1.000  C
  C186     1.0000 0.92088  0.69814  0.40550  Biso   1.000  C
  C187     1.0000 0.73719  0.21028  0.08231  Biso   1.000  C
  C188     1.0000 0.81972  0.14798  0.13233  Biso   1.000  C
  H103     1.0000 0.89370  0.25390  0.18380  Biso   1.000  H
  O26      1.0000 0.73132  0.63883  0.38509  Biso   1.000  O
  H104     1.0000 0.78639  0.64909  0.34858  Biso   1.000  H
  C189     1.0000 0.83883  0.76283  0.23382  Biso   1.000  C
  H105     1.0000 0.79858  0.76900  0.31467  Biso   1.000  H
  C190     1.0000 0.92777  0.70717  0.32296  Biso   1.000  C
  H106     1.0000 0.94860  0.67598  0.46319  Biso   1.000  H
  C191     1.0000 0.70331  0.17126  0.00460  Biso   1.000  C
  C192     1.0000 0.70976  0.26381  0.08983  Biso   1.000  C
  H107     1.0000 0.86018  0.13998  0.17567  Biso   1.000  H
  C193     1.0000 0.78494  0.10818  0.05654  Biso   1.000  C
  C194     1.0000 0.79781  0.80063  0.14752  Biso   1.000  C
  C195     1.0000 0.88770  0.73967  0.23857  Biso   1.000  C
  H108     1.0000 0.96047  0.69079  0.32457  Biso   1.000  H
  C196     1.0000 0.72629  0.12165  0.99003  Biso   1.000  C
  H109     1.0000 0.66293  0.17900  0.96003  Biso   1.000  H
  O27      1.0000 0.65877  0.27406  0.03744  Biso   1.000  O
  H110     1.0000 0.73409  0.29191  0.13946  Biso   1.000  H
  C197     1.0000 0.81191  0.05244  0.05470  Biso   1.000  C
  C198     1.0000 0.81972  0.85202  0.13233  Biso   1.000  C
  C199     1.0000 0.73719  0.78972  0.08231  Biso   1.000  C
  H111     1.0000 0.89370  0.74610  0.18380  Biso   1.000  H
  C200     1.0000 0.68646  0.08559  0.89652  Biso   1.000  C
  C201     1.0000 0.78441  0.00000  0.04879  Biso   1.000  C
  C202     1.0000 0.86633  0.05205  0.06659  Biso   1.000  C
  C203     1.0000 0.78494  0.89182  0.05654  Biso   1.000  C
  H112     1.0000 0.86018  0.86002  0.17567  Biso   1.000  H
  C204     1.0000 0.70331  0.82874  0.00460  Biso   1.000  C
  C205     1.0000 0.70976  0.73619  0.08983  Biso   1.000  C
  O28      1.0000 0.63503  0.09093  0.84658  Biso   1.000  O
  H113     1.0000 0.70359  0.05678  0.87642  Biso   1.000  H
  H114     1.0000 0.74709  0.00000  0.04058  Biso   1.000  H
  C206     1.0000 0.81191  0.94756  0.05470  Biso   1.000  C
  C207     1.0000 0.89440  0.00000  0.07303  Biso   1.000  C
  H115     1.0000 0.88488  0.08780  0.07027  Biso   1.000  H
  C208     1.0000 0.72629  0.87835  0.99003  Biso   1.000  C
  H116     1.0000 0.66293  0.82100  0.96003  Biso   1.000  H
  O29      1.0000 0.65877  0.72594  0.03744  Biso   1.000  O
  H117     1.0000 0.73409  0.70809  0.13946  Biso   1.000  H
  C209     1.0000 0.86633  0.94795  0.06659  Biso   1.000  C
  H118     1.0000 0.93180  0.00000  0.08162  Biso   1.000  H
  C210     1.0000 0.68646  0.91441  0.89652  Biso   1.000  C
  H119     1.0000 0.88488  0.91220  0.07027  Biso   1.000  H
  O30      1.0000 0.63503  0.90907  0.84658  Biso   1.000  O
  H120     1.0000 0.70359  0.94322  0.87642  Biso   1.000  H
  O31      1.0000 0.21674  0.10579  0.17460  Biso   1.000  O
  C211     1.0000 0.16963  0.10640  0.16600  Biso   1.000  C
  C212     1.0000 0.14128  0.05261  0.17490  Biso   1.000  C
  H121     1.0000 0.14977  0.14242  0.15296  Biso   1.000  H
  C213     1.0000 0.08835  0.05348  0.17076  Biso   1.000  C
  C214     1.0000 0.16681  0.00000  0.17659  Biso   1.000  C
  C215     1.0000 0.05993  0.10796  0.17467  Biso   1.000  C
  C216     1.0000 0.06309  0.00000  0.16861  Biso   1.000  C
  C217     1.0000 0.14128  0.94739  0.17490  Biso   1.000  C
  H122     1.0000 0.20258  0.00000  0.17897  Biso   1.000  H
  C218     1.0000 0.09223  0.14954  0.24740  Biso   1.000  C
  C219     1.0000 0.00074  0.11687  0.10832  Biso   1.000  C
  H123     1.0000 0.02699  0.00000  0.16539  Biso   1.000  H
  C220     1.0000 0.08835  0.94652  0.17076  Biso   1.000  C
  C221     1.0000 0.16963  0.89360  0.16600  Biso   1.000  C
  C222     1.0000 0.06681  0.20085  0.25522  Biso   1.000  C
  H124     1.0000 0.13282  0.14329  0.29373  Biso   1.000  H
  C223     1.0000 0.97505  0.16818  0.11231  Biso   1.000  C
  H125     1.0000 0.97749  0.08780  0.05968  Biso   1.000  H
  C224     1.0000 0.05993  0.89204  0.17467  Biso   1.000  C
  O32      1.0000 0.21674  0.89421  0.17460  Biso   1.000  O
  H126     1.0000 0.14977  0.85758  0.15296  Biso   1.000  H
  C225     1.0000 0.10328  0.24243  0.33761  Biso   1.000  C
  C226     1.0000 0.00745  0.20989  0.18672  Biso   1.000  C
  H127     1.0000 0.93487  0.17478  0.06367  Biso   1.000  H
  C227     1.0000 0.00074  0.88313  0.10832  Biso   1.000  C
  C228     1.0000 0.09223  0.85046  0.24740  Biso   1.000  C
  C229     1.0000 0.15082  0.27093  0.34367  Biso   1.000  C
  C230     1.0000 0.09447  0.24908  0.41915  Biso   1.000  C
  H128     1.0000 0.98918  0.24421  0.19071  Biso   1.000  H
  H129     1.0000 0.97749  0.91220  0.05968  Biso   1.000  H
  C231     1.0000 0.97505  0.83182  0.11231  Biso   1.000  C
  C232     1.0000 0.06681  0.79915  0.25522  Biso   1.000  C
  H130     1.0000 0.13282  0.85671  0.29373  Biso   1.000  H
  C233     1.0000 0.16037  0.26863  0.25721  Biso   1.000  C
  C234     1.0000 0.18907  0.30360  0.42890  Biso   1.000  C
  H131     1.0000 0.06130  0.23179  0.41478  Biso   1.000  H
  C235     1.0000 0.13388  0.28066  0.50699  Biso   1.000  C
  H132     1.0000 0.93487  0.82522  0.06367  Biso   1.000  H
  C236     1.0000 0.00745  0.79011  0.18672  Biso   1.000  C
  C237     1.0000 0.10328  0.75757  0.33761  Biso   1.000  C
  O33      1.0000 0.20329  0.28787  0.26197  Biso   1.000  O
  H133     1.0000 0.13117  0.25112  0.19477  Biso   1.000  H
  C238     1.0000 0.18175  0.30786  0.51236  Biso   1.000  C
  H134     1.0000 0.22048  0.32328  0.43089  Biso   1.000  H
  C239     1.0000 0.12791  0.27753  0.59835  Biso   1.000  C
  H135     1.0000 0.98918  0.75579  0.19071  Biso   1.000  H
  C240     1.0000 0.15082  0.72907  0.34367  Biso   1.000  C
  C241     1.0000 0.09447  0.75092  0.41915  Biso   1.000  C
  C242     1.0000 0.22294  0.34244  0.60142  Biso   1.000  C
  C243     1.0000 0.16810  0.24651  0.68289  Biso   1.000  C
  C244     1.0000 0.07909  0.30186  0.59452  Biso   1.000  C
  C245     1.0000 0.18907  0.69640  0.42890  Biso   1.000  C
  C246     1.0000 0.16037  0.73137  0.25721  Biso   1.000  C
  H136     1.0000 0.06130  0.76821  0.41478  Biso   1.000  H
  C247     1.0000 0.13388  0.71934  0.50699  Biso   1.000  C
  O34      1.0000 0.26865  0.36117  0.61492  Biso   1.000  O
  H137     1.0000 0.21359  0.35091  0.65136  Biso   1.000  H
  C248     1.0000 0.16114  0.23717  0.76620  Biso   1.000  C
  H138     1.0000 0.20136  0.23100  0.68527  Biso   1.000  H
  H139     1.0000 0.05138  0.32402  0.53675  Biso   1.000  H
  C249     1.0000 0.07221  0.29283  0.67698  Biso   1.000  C
  C250     1.0000 0.18175  0.69214  0.51236  Biso   1.000  C
  H140     1.0000 0.22048  0.67672  0.43089  Biso   1.000  H
  O35      1.0000 0.20329  0.71213  0.26197  Biso   1.000  O
  H141     1.0000 0.13117  0.74888  0.19477  Biso   1.000  H
  C251     1.0000 0.12791  0.72247  0.59835  Biso   1.000  C
  C252     1.0000 0.20216  0.19937  0.85250  Biso   1.000  C
  C253     1.0000 0.11224  0.26033  0.76136  Biso   1.000  C
  H142     1.0000 0.03947  0.30921  0.67537  Biso   1.000  H
  C254     1.0000 0.22294  0.65756  0.60142  Biso   1.000  C
  C255     1.0000 0.16810  0.75349  0.68289  Biso   1.000  C
  C256     1.0000 0.07909  0.69814  0.59452  Biso   1.000  C
  C257     1.0000 0.26278  0.21028  0.91770  Biso   1.000  C
  C258     1.0000 0.18025  0.14798  0.86769  Biso   1.000  C
  H143     1.0000 0.10630  0.25390  0.81621  Biso   1.000  H
  O36      1.0000 0.26865  0.63883  0.61492  Biso   1.000  O
  H144     1.0000 0.21359  0.64909  0.65136  Biso   1.000  H
  C259     1.0000 0.16114  0.76283  0.76620  Biso   1.000  C
  H145     1.0000 0.20136  0.76900  0.68527  Biso   1.000  H
  H146     1.0000 0.05138  0.67598  0.53675  Biso   1.000  H
  C260     1.0000 0.07221  0.70717  0.67698  Biso   1.000  C
  C261     1.0000 0.29669  0.17126  0.99541  Biso   1.000  C
  C262     1.0000 0.29021  0.26381  0.91018  Biso   1.000  C
  H147     1.0000 0.13977  0.13998  0.82427  Biso   1.000  H
  C263     1.0000 0.21503  0.10818  0.94348  Biso   1.000  C
  C264     1.0000 0.20216  0.80063  0.85250  Biso   1.000  C
  C265     1.0000 0.11224  0.73967  0.76136  Biso   1.000  C
  H148     1.0000 0.03947  0.69079  0.67537  Biso   1.000  H
  C266     1.0000 0.27371  0.12165  0.00999  Biso   1.000  C
  H149     1.0000 0.33708  0.17900  0.03998  Biso   1.000  H
  O37      1.0000 0.34120  0.27406  0.96258  Biso   1.000  O
  H150     1.0000 0.26589  0.29191  0.86047  Biso   1.000  H
  C267     1.0000 0.18807  0.05244  0.94524  Biso   1.000  C
  C268     1.0000 0.18025  0.85202  0.86769  Biso   1.000  C
  C269     1.0000 0.26278  0.78972  0.91770  Biso   1.000  C
  H151     1.0000 0.10630  0.74610  0.81621  Biso   1.000  H
  C270     1.0000 0.31351  0.08559  0.10350  Biso   1.000  C
  C271     1.0000 0.21557  0.00000  0.95115  Biso   1.000  C
  C272     1.0000 0.13365  0.05205  0.93335  Biso   1.000  C
  C273     1.0000 0.21503  0.89182  0.94348  Biso   1.000  C
  H152     1.0000 0.13977  0.86002  0.82427  Biso   1.000  H
  C274     1.0000 0.29669  0.82874  0.99541  Biso   1.000  C
  C275     1.0000 0.29021  0.73619  0.91018  Biso   1.000  C
  O38      1.0000 0.36491  0.09093  0.15336  Biso   1.000  O
  H153     1.0000 0.29637  0.05678  0.12360  Biso   1.000  H
  H154     1.0000 0.25289  0.00000  0.95936  Biso   1.000  H
  C276     1.0000 0.18807  0.94756  0.94524  Biso   1.000  C
  C277     1.0000 0.10557  0.00000  0.92698  Biso   1.000  C
  H155     1.0000 0.11506  0.08780  0.92967  Biso   1.000  H
  C278     1.0000 0.27371  0.87835  0.00999  Biso   1.000  C
  H156     1.0000 0.33708  0.82100  0.03998  Biso   1.000  H
  O39      1.0000 0.34120  0.72594  0.96258  Biso   1.000  O
  H157     1.0000 0.26589  0.70809  0.86047  Biso   1.000  H
  C279     1.0000 0.13365  0.94795  0.93335  Biso   1.000  C
  H158     1.0000 0.06817  0.00000  0.91839  Biso   1.000  H
  C280     1.0000 0.31351  0.91441  0.10350  Biso   1.000  C
  H159     1.0000 0.11506  0.91220  0.92967  Biso   1.000  H
  O40      1.0000 0.36491  0.90907  0.15336  Biso   1.000  O
  H160     1.0000 0.29637  0.94322  0.12360  Biso   1.000  H
  Ne1      1.0000 0.33224  0.50000  0.42725  Biso   1.000  Ne
  He1      1.0000 0.36785  0.51398  0.44301  Biso   1.000  He
  He2      1.0000 0.21023  0.47338  0.35675  Biso   1.000  He
  Ar1      1.0000 0.25600  0.49465  0.39772  Biso   1.000  Ar
  Ne2      1.0000 0.16774  0.00000  0.57273  Biso   1.000  Ne
  He3      1.0000 0.18782  0.01209  0.57952  Biso   1.000  He
  He4      1.0000 0.13596  0.01466  0.55852  Biso   1.000  He
  Ar2      1.0000 0.16756  0.00000  0.57131  Biso   1.000  Ar
  Ne3      1.0000 0.66775  0.50000  0.57273  Biso   1.000  Ne
  He5      1.0000 0.00000  0.00000  0.00000  Biso   1.000  He
  He6      1.0000 0.59252  0.49215  0.54092  Biso   1.000  He
  Ar3      1.0000 0.82678  0.46810  0.66500  Biso   1.000  Ar
  Ne4      1.0000 0.83223  0.00000  0.42725  Biso   1.000  Ne
  He7      1.0000 0.87877  0.01228  0.44744  Biso   1.000  He
  He8      1.0000 0.64883  0.98138  0.31497  Biso   1.000  He
  Ar4      1.0000 0.67209  0.00000  0.33137  Biso   1.000  Ar
