data_image0
_cell_length_a       12.101
_cell_length_b       15.262
_cell_length_c       15.448
_cell_angle_alpha    91.89
_cell_angle_beta     95.89
_cell_angle_gamma    101.88

_symmetry_space_group_name_H-M    "P 1"
_symmetry_int_tables_number       1

loop_
  _symmetry_equiv_pos_as_xyz
  'x, y, z'

loop_
  _atom_site_label
  _atom_site_occupancy
  _atom_site_fract_x
  _atom_site_fract_y
  _atom_site_fract_z
  _atom_site_thermal_displace_type
  _atom_site_B_iso_or_equiv
  _atom_site_type_symbol
  C1       1.0000 0.53549  0.38303  0.46778  Biso   1.000  C
  C2       1.0000 0.49188  0.29498  0.43617  Biso   1.000  C
  H1       1.0000 0.48574  0.41873  0.48212  Biso   1.000  H
  C3       1.0000 0.65093  0.41872  0.47840  Biso   1.000  C
  C4       1.0000 0.36420  0.25830  0.43063  Biso   1.000  C
  C5       1.0000 0.56809  0.24280  0.41479  Biso   1.000  C
  O1       1.0000 0.68388  0.50729  0.51210  Biso   1.000  O
  C6       1.0000 0.72808  0.36873  0.45422  Biso   1.000  C
  C7       1.0000 0.32907  0.23073  0.51862  Biso   1.000  C
  H2       1.0000 0.34312  0.20692  0.38918  Biso   1.000  H
  H3       1.0000 0.32418  0.30378  0.40971  Biso   1.000  H
  O2       1.0000 0.53668  0.15650  0.38207  Biso   1.000  O
  C8       1.0000 0.68394  0.28103  0.42287  Biso   1.000  C
  H4       1.0000 0.74714  0.51489  0.53961  Biso   1.000  H
  C9       1.0000 0.85396  0.40552  0.46537  Biso   1.000  C
  C10      1.0000 0.30641  0.29437  0.57780  Biso   1.000  C
  C11      1.0000 0.32117  0.14418  0.54599  Biso   1.000  C
  H5       1.0000 0.48429  0.12982  0.40723  Biso   1.000  H
  H6       1.0000 0.73371  0.24608  0.40651  Biso   1.000  H
  H7       1.0000 0.88918  0.37589  0.42261  Biso   1.000  H
  H8       1.0000 0.86877  0.46910  0.45553  Biso   1.000  H
  C12      1.0000 0.90670  0.39130  0.55740  Biso   1.000  C
  C13      1.0000 0.28060  0.27298  0.66038  Biso   1.000  C
  H9       1.0000 0.30876  0.35267  0.56098  Biso   1.000  H
  O3       1.0000 0.35008  0.08379  0.48642  Biso   1.000  O
  C14      1.0000 0.28937  0.12113  0.62649  Biso   1.000  C
  C15      1.0000 0.93616  0.31059  0.57448  Biso   1.000  C
  C16      1.0000 0.92102  0.45578  0.62531  Biso   1.000  C
  O4       1.0000 0.26573  0.33583  0.72321  Biso   1.000  O
  C17      1.0000 0.26942  0.18431  0.68580  Biso   1.000  C
  C18      1.0000 0.32329  0.99218  0.50258  Biso   1.000  C
  H10      1.0000 0.28109  0.06172  0.64128  Biso   1.000  H
  H11      1.0000 0.93052  0.26833  0.52872  Biso   1.000  H
  C19      1.0000 0.97429  0.29040  0.65823  Biso   1.000  C
  O5       1.0000 0.89270  0.53701  0.60452  Biso   1.000  O
  C20      1.0000 0.95938  0.43692  0.70887  Biso   1.000  C
  C21      1.0000 0.26947  0.42367  0.69499  Biso   1.000  C
  C22      1.0000 0.23254  0.15852  0.77457  Biso   1.000  C
  H12      1.0000 0.36642  0.98078  0.55603  Biso   1.000  H
  H13      1.0000 0.24297  0.97352  0.50871  Biso   1.000  H
  C23      1.0000 0.35348  0.94147  0.42600  Biso   1.000  C
  O6       1.0000 0.99857  0.20969  0.67869  Biso   1.000  O
  C24      1.0000 0.98537  0.35540  0.72693  Biso   1.000  C
  C25      1.0000 0.91363  0.60800  0.67153  Biso   1.000  C
  H14      1.0000 0.96767  0.48047  0.75391  Biso   1.000  H
  H15      1.0000 0.33802  0.44413  0.66742  Biso   1.000  H
  H16      1.0000 0.20443  0.42421  0.65288  Biso   1.000  H
  C26      1.0000 0.26806  0.48467  0.77340  Biso   1.000  C
  C27      1.0000 0.33399  0.15728  0.84053  Biso   1.000  C
  H17      1.0000 0.18254  0.09961  0.76890  Biso   1.000  H
  H18      1.0000 0.19028  0.20109  0.79530  Biso   1.000  H
  O7       1.0000 0.41261  0.97379  0.37301  Biso   1.000  O
  O8       1.0000 0.30780  0.85478  0.42639  Biso   1.000  O
  C28      1.0000 0.99503  0.14512  0.60928  Biso   1.000  C
  C29      1.0000 0.02258  0.33491  0.81941  Biso   1.000  C
  H19      1.0000 0.89055  0.65983  0.64813  Biso   1.000  H
  H20      1.0000 0.87090  0.58882  0.71897  Biso   1.000  H
  H21      1.0000 0.99314  0.62289  0.69193  Biso   1.000  H
  O9       1.0000 0.28498  0.47100  0.84822  Biso   1.000  O
  O10      1.0000 0.24780  0.56322  0.74192  Biso   1.000  O
  C30      1.0000 0.38279  0.23361  0.89332  Biso   1.000  C
  C31      1.0000 0.38268  0.08290  0.84548  Biso   1.000  C
  C32      1.0000 0.34075  0.79673  0.36082  Biso   1.000  C
  H22      1.0000 0.92011  0.13102  0.57819  Biso   1.000  H
  H23      1.0000 0.01336  0.09168  0.63248  Biso   1.000  H
  H24      1.0000 0.04903  0.16907  0.57030  Biso   1.000  H
  C33      1.0000 0.92578  0.28867  0.86791  Biso   1.000  C
  H25      1.0000 0.07772  0.29698  0.81778  Biso   1.000  H
  H26      1.0000 0.06006  0.39057  0.85142  Biso   1.000  H
  C34      1.0000 0.25294  0.63422  0.80690  Biso   1.000  C
  C35      1.0000 0.48283  0.23602  0.94951  Biso   1.000  C
  H27      1.0000 0.34945  0.28333  0.89163  Biso   1.000  H
  O11      1.0000 0.32418  0.00687  0.79569  Biso   1.000  O
  C36      1.0000 0.48140  0.08431  0.90049  Biso   1.000  C
  H28      1.0000 0.30423  0.73563  0.36721  Biso   1.000  H
  H29      1.0000 0.31792  0.81408  0.30360  Biso   1.000  H
  H30      1.0000 0.42171  0.80239  0.36838  Biso   1.000  H
  C37      1.0000 0.88700  0.19958  0.86139  Biso   1.000  C
  C38      1.0000 0.86897  0.34100  0.91659  Biso   1.000  C
  H31      1.0000 0.23624  0.68613  0.77907  Biso   1.000  H
  H32      1.0000 0.19809  0.61481  0.84679  Biso   1.000  H
  H33      1.0000 0.32758  0.64907  0.83818  Biso   1.000  H
  C39      1.0000 0.53318  0.16103  0.95192  Biso   1.000  C
  O12      1.0000 0.53586  0.30840  0.00458  Biso   1.000  O
  C40      1.0000 0.38861  0.94313  0.77229  Biso   1.000  C
  H34      1.0000 0.51288  0.03370  0.90297  Biso   1.000  H
  C41      1.0000 0.79804  0.15762  0.90388  Biso   1.000  C
  H35      1.0000 0.92160  0.16479  0.82671  Biso   1.000  H
  C42      1.0000 0.78197  0.30038  0.96378  Biso   1.000  C
  O13      1.0000 0.90863  0.43209  0.91829  Biso   1.000  O
  C43      1.0000 0.64631  0.16448  0.00628  Biso   1.000  C
  C44      1.0000 0.48596  0.38649  0.00132  Biso   1.000  C
  H36      1.0000 0.33980  0.89427  0.73748  Biso   1.000  H
  H37      1.0000 0.44817  0.97132  0.73957  Biso   1.000  H
  H38      1.0000 0.42118  0.92079  0.82417  Biso   1.000  H
  C45      1.0000 0.74481  0.20753  0.95941  Biso   1.000  C
  O14      1.0000 0.75708  0.06473  0.89893  Biso   1.000  O
  H39      1.0000 0.74820  0.33578  0.99859  Biso   1.000  H
  C46      1.0000 0.84606  0.48777  0.95987  Biso   1.000  C
  H40      1.0000 0.65337  0.10411  0.01957  Biso   1.000  H
  H41      1.0000 0.64819  0.19827  0.06090  Biso   1.000  H
  H42      1.0000 0.48469  0.40761  0.94338  Biso   1.000  H
  H43      1.0000 0.53037  0.43278  0.04160  Biso   1.000  H
  H44      1.0000 0.40977  0.37110  0.01671  Biso   1.000  H
  C47      1.0000 0.79247  0.02229  0.81479  Biso   1.000  C
  H45      1.0000 0.76578  0.46993  0.93947  Biso   1.000  H
  C48      1.0000 0.89261  0.58278  0.93641  Biso   1.000  C
  H46      1.0000 0.85589  0.48318  0.02257  Biso   1.000  H
  H47      1.0000 0.77346  0.05518  0.76473  Biso   1.000  H
  H48      1.0000 0.87387  0.02601  0.82130  Biso   1.000  H
  C49      1.0000 0.72839  0.92129  0.80019  Biso   1.000  C
  O15      1.0000 0.96397  0.60578  0.88798  Biso   1.000  O
  O16      1.0000 0.83878  0.63810  0.97538  Biso   1.000  O
  O17      1.0000 0.64767  0.90048  0.84848  Biso   1.000  O
  O18      1.0000 0.78229  0.87490  0.76049  Biso   1.000  O
  C50      1.0000 0.87142  0.73272  0.95687  Biso   1.000  C
  C51      1.0000 0.60450  0.80990  0.83923  Biso   1.000  C
  H49      1.0000 0.82448  0.76618  0.98457  Biso   1.000  H
  H50      1.0000 0.94959  0.75540  0.97877  Biso   1.000  H
  H51      1.0000 0.86157  0.73870  0.89508  Biso   1.000  H
  H52      1.0000 0.54063  0.79503  0.87188  Biso   1.000  H
  H53      1.0000 0.58079  0.79271  0.77868  Biso   1.000  H
  H54      1.0000 0.66202  0.77850  0.86041  Biso   1.000  H
  C52      1.0000 0.46451  0.61697  0.53218  Biso   1.000  C
  C53      1.0000 0.34908  0.58128  0.52162  Biso   1.000  C
  C54      1.0000 0.50813  0.70502  0.56379  Biso   1.000  C
  H55      1.0000 0.51428  0.58127  0.51790  Biso   1.000  H
  C55      1.0000 0.27193  0.63128  0.54580  Biso   1.000  C
  O19      1.0000 0.31613  0.49271  0.48792  Biso   1.000  O
  C56      1.0000 0.43193  0.75720  0.58523  Biso   1.000  C
  C57      1.0000 0.63581  0.74170  0.56939  Biso   1.000  C
  C58      1.0000 0.14596  0.59448  0.53459  Biso   1.000  C
  C59      1.0000 0.31607  0.71897  0.57708  Biso   1.000  C
  H56      1.0000 0.25288  0.48512  0.46041  Biso   1.000  H
  O20      1.0000 0.46332  0.84350  0.61788  Biso   1.000  O
  C60      1.0000 0.67086  0.76927  0.48140  Biso   1.000  C
  H57      1.0000 0.65689  0.79308  0.61078  Biso   1.000  H
  H58      1.0000 0.67583  0.69623  0.59031  Biso   1.000  H
  C61      1.0000 0.09331  0.60870  0.44262  Biso   1.000  C
  H59      1.0000 0.11084  0.62411  0.57741  Biso   1.000  H
  H60      1.0000 0.13116  0.53090  0.54449  Biso   1.000  H
  H61      1.0000 0.26631  0.75392  0.59351  Biso   1.000  H
  H62      1.0000 0.51572  0.87019  0.59279  Biso   1.000  H
  C62      1.0000 0.69361  0.70563  0.42222  Biso   1.000  C
  C63      1.0000 0.67884  0.85582  0.45403  Biso   1.000  C
  C64      1.0000 0.06384  0.68941  0.42548  Biso   1.000  C
  C65      1.0000 0.07899  0.54422  0.37471  Biso   1.000  C
  C66      1.0000 0.71940  0.72701  0.33958  Biso   1.000  C
  H63      1.0000 0.69124  0.64733  0.43897  Biso   1.000  H
  C67      1.0000 0.71055  0.87887  0.37347  Biso   1.000  C
  O21      1.0000 0.64993  0.91621  0.51360  Biso   1.000  O
  C68      1.0000 0.02573  0.70960  0.34179  Biso   1.000  C
  H64      1.0000 0.06949  0.73167  0.47130  Biso   1.000  H
  C69      1.0000 0.04062  0.56308  0.29108  Biso   1.000  C
  O22      1.0000 0.10732  0.46299  0.39550  Biso   1.000  O
  C70      1.0000 0.73059  0.81569  0.31422  Biso   1.000  C
  O23      1.0000 0.73428  0.66417  0.27681  Biso   1.000  O
  H65      1.0000 0.71891  0.93828  0.35867  Biso   1.000  H
  C71      1.0000 0.67671  0.00781  0.49737  Biso   1.000  C
  C72      1.0000 0.01456  0.64461  0.27309  Biso   1.000  C
  O24      1.0000 0.00144  0.79032  0.32133  Biso   1.000  O
  H66      1.0000 0.03235  0.51953  0.24611  Biso   1.000  H
  C73      1.0000 0.08639  0.39200  0.32850  Biso   1.000  C
  C74      1.0000 0.76747  0.84147  0.22538  Biso   1.000  C
  C75      1.0000 0.73054  0.57633  0.30503  Biso   1.000  C
  H67      1.0000 0.63359  0.01922  0.44399  Biso   1.000  H
  H68      1.0000 0.75696  0.02648  0.49131  Biso   1.000  H
  C76      1.0000 0.64654  0.05853  0.57402  Biso   1.000  C
  C77      1.0000 0.97744  0.66509  0.18061  Biso   1.000  C
  C78      1.0000 0.00498  0.85488  0.39067  Biso   1.000  C
  H69      1.0000 0.10946  0.34018  0.35189  Biso   1.000  H
  H70      1.0000 0.12910  0.41118  0.28098  Biso   1.000  H
  H71      1.0000 0.00688  0.37711  0.30809  Biso   1.000  H
  C79      1.0000 0.66603  0.84273  0.15949  Biso   1.000  C
  H72      1.0000 0.81748  0.90039  0.23112  Biso   1.000  H
  H73      1.0000 0.80974  0.79891  0.20472  Biso   1.000  H
  H74      1.0000 0.66199  0.55588  0.33260  Biso   1.000  H
  H75      1.0000 0.79557  0.57579  0.34707  Biso   1.000  H
  C80      1.0000 0.73187  0.51533  0.22662  Biso   1.000  C
  O25      1.0000 0.58741  0.02621  0.62701  Biso   1.000  O
  O26      1.0000 0.69221  0.14522  0.57363  Biso   1.000  O
  C81      1.0000 0.07424  0.71133  0.13212  Biso   1.000  C
  H76      1.0000 0.92229  0.70301  0.18217  Biso   1.000  H
  H77      1.0000 0.93995  0.60943  0.14860  Biso   1.000  H
  H78      1.0000 0.07991  0.86898  0.42183  Biso   1.000  H
  H79      1.0000 0.98656  0.90832  0.36747  Biso   1.000  H
  H80      1.0000 0.95099  0.83093  0.42972  Biso   1.000  H
  C82      1.0000 0.61723  0.76639  0.10670  Biso   1.000  C
  C83      1.0000 0.61733  0.91710  0.15447  Biso   1.000  C
  O27      1.0000 0.71504  0.52900  0.15180  Biso   1.000  O
  O28      1.0000 0.75221  0.43679  0.25810  Biso   1.000  O
  C84      1.0000 0.65927  0.20327  0.63920  Biso   1.000  C
  C85      1.0000 0.13104  0.65900  0.08343  Biso   1.000  C
  C86      1.0000 0.11301  0.80042  0.13857  Biso   1.000  C
  C87      1.0000 0.51718  0.76398  0.05051  Biso   1.000  C
  H81      1.0000 0.65057  0.71667  0.10839  Biso   1.000  H
  C88      1.0000 0.51862  0.91570  0.09953  Biso   1.000  C
  O29      1.0000 0.67583  0.99313  0.20433  Biso   1.000  O
  C89      1.0000 0.74708  0.36578  0.19312  Biso   1.000  C
  H82      1.0000 0.69578  0.26437  0.63281  Biso   1.000  H
  H83      1.0000 0.68209  0.18592  0.69642  Biso   1.000  H
  H84      1.0000 0.57829  0.19761  0.63157  Biso   1.000  H
  O30      1.0000 0.09138  0.56791  0.08167  Biso   1.000  O
  C90      1.0000 0.21804  0.69962  0.03617  Biso   1.000  C
  C91      1.0000 0.20196  0.84238  0.09607  Biso   1.000  C
  H85      1.0000 0.07841  0.83522  0.17331  Biso   1.000  H
  C92      1.0000 0.46675  0.83897  0.04810  Biso   1.000  C
  O31      1.0000 0.46406  0.69160  0.99537  Biso   1.000  O
  H86      1.0000 0.48713  0.96630  0.09698  Biso   1.000  H
  C93      1.0000 0.61140  0.05687  0.22773  Biso   1.000  C
  H87      1.0000 0.76376  0.31387  0.22089  Biso   1.000  H
  H88      1.0000 0.80193  0.38519  0.15323  Biso   1.000  H
  H89      1.0000 0.67243  0.35093  0.16177  Biso   1.000  H
  C94      1.0000 0.15395  0.51223  0.04008  Biso   1.000  C
  H90      1.0000 0.25180  0.66422  0.00137  Biso   1.000  H
  C95      1.0000 0.25520  0.79247  0.04061  Biso   1.000  C
  O32      1.0000 0.24285  0.93527  0.10109  Biso   1.000  O
  C96      1.0000 0.35370  0.83552  0.99368  Biso   1.000  C
  C97      1.0000 0.51397  0.61351  0.99870  Biso   1.000  C
  H91      1.0000 0.66021  0.10573  0.26247  Biso   1.000  H
  H92      1.0000 0.55175  0.02868  0.26038  Biso   1.000  H
  H93      1.0000 0.57883  0.07921  0.17578  Biso   1.000  H
  C98      1.0000 0.10741  0.41723  0.06361  Biso   1.000  C
  H94      1.0000 0.23422  0.53007  0.06048  Biso   1.000  H
  H95      1.0000 0.14411  0.51681  0.97738  Biso   1.000  H
  C99      1.0000 0.20753  0.97771  0.18517  Biso   1.000  C
  H96      1.0000 0.34656  0.89589  0.98038  Biso   1.000  H
  H97      1.0000 0.35181  0.80167  0.93912  Biso   1.000  H
  H98      1.0000 0.51532  0.59238  0.05657  Biso   1.000  H
  H99      1.0000 0.46965  0.56722  0.95842  Biso   1.000  H
  H100     1.0000 0.59024  0.62890  0.98331  Biso   1.000  H
  O33      1.0000 0.16123  0.36190  0.02457  Biso   1.000  O
  O34      1.0000 0.03604  0.39421  0.11198  Biso   1.000  O
  H101     1.0000 0.22647  0.94482  0.23529  Biso   1.000  H
  H102     1.0000 0.12606  0.97399  0.17872  Biso   1.000  H
  C100     1.0000 0.27162  0.07871  0.19977  Biso   1.000  C
  C101     1.0000 0.12859  0.26728  0.04308  Biso   1.000  C
  O35      1.0000 0.35234  0.09952  0.15147  Biso   1.000  O
  O36      1.0000 0.21772  0.12511  0.23953  Biso   1.000  O
  H103     1.0000 0.17552  0.23382  0.01538  Biso   1.000  H
  H104     1.0000 0.05042  0.24460  0.02118  Biso   1.000  H
  H105     1.0000 0.13844  0.26130  0.10487  Biso   1.000  H
  C102     1.0000 0.39551  0.19010  0.16079  Biso   1.000  C
  H106     1.0000 0.45938  0.20497  0.12807  Biso   1.000  H
  H107     1.0000 0.41922  0.20729  0.22128  Biso   1.000  H
  H108     1.0000 0.33800  0.22150  0.13961  Biso   1.000  H
  Ne1      1.0000 0.60671  0.25609  0.71463  Biso   1.000  Ne
  He1      1.0000 0.58037  0.75063  0.65337  Biso   1.000  He
  He2      1.0000 0.62709  0.09762  0.59775  Biso   1.000  He
  Ar1      1.0000 0.62632  0.27262  0.70089  Biso   1.000  Ar
  Ne2      1.0000 0.39329  0.74391  0.28537  Biso   1.000  Ne
  He3      1.0000 0.38132  0.87810  0.38289  Biso   1.000  He
  He4      1.0000 0.39762  0.47768  0.23266  Biso   1.000  He
  Ar2      1.0000 0.37404  0.72771  0.29914  Biso   1.000  Ar
