data_image0
_cell_length_a       14.585
_cell_length_b       16.434
_cell_length_c       30.034
_cell_angle_alpha    90
_cell_angle_beta     99.05
_cell_angle_gamma    90

_symmetry_space_group_name_H-M    "P 1"
_symmetry_int_tables_number       1

loop_
  _symmetry_equiv_pos_as_xyz
  'x, y, z'

loop_
  _atom_site_label
  _atom_site_occupancy
  _atom_site_fract_x
  _atom_site_fract_y
  _atom_site_fract_z
  _atom_site_thermal_displace_type
  _atom_site_B_iso_or_equiv
  _atom_site_type_symbol
  C1       1.0000 0.64486  0.36053  0.53348  Biso   1.000  C
  C2       1.0000 0.55723  0.31843  0.54491  Biso   1.000  C
  N1       1.0000 0.70576  0.29293  0.52697  Biso   1.000  N
  H1       1.0000 0.63085  0.39400  0.50630  Biso   1.000  H
  N2       1.0000 0.67565  0.40982  0.57330  Biso   1.000  N
  N3       1.0000 0.57557  0.23311  0.53928  Biso   1.000  N
  H2       1.0000 0.50188  0.33583  0.52431  Biso   1.000  H
  N4       1.0000 0.55315  0.34453  0.59073  Biso   1.000  N
  C3       1.0000 0.66038  0.21991  0.52700  Biso   1.000  C
  C4       1.0000 0.78837  0.30413  0.50661  Biso   1.000  C
  C5       1.0000 0.61755  0.40428  0.60475  Biso   1.000  C
  C6       1.0000 0.74233  0.47554  0.57360  Biso   1.000  C
  C7       1.0000 0.50776  0.17099  0.54373  Biso   1.000  C
  C8       1.0000 0.47227  0.33212  0.61217  Biso   1.000  C
  O1       1.0000 0.69016  0.15352  0.51648  Biso   1.000  O
  H3       1.0000 0.80273  0.25350  0.49251  Biso   1.000  H
  H4       1.0000 0.77613  0.34514  0.48321  Biso   1.000  H
  N5       1.0000 0.86837  0.32901  0.53897  Biso   1.000  N
  O2       1.0000 0.62154  0.44469  0.63867  Biso   1.000  O
  H5       1.0000 0.73139  0.51564  0.59592  Biso   1.000  H
  H6       1.0000 0.73297  0.50183  0.54430  Biso   1.000  H
  N6       1.0000 0.83807  0.44761  0.58385  Biso   1.000  N
  H7       1.0000 0.44654  0.19180  0.53169  Biso   1.000  H
  H8       1.0000 0.51944  0.12450  0.52559  Biso   1.000  H
  N7       1.0000 0.50747  0.14440  0.58941  Biso   1.000  N
  N8       1.0000 0.47460  0.25751  0.63820  Biso   1.000  N
  H9       1.0000 0.46635  0.37781  0.63199  Biso   1.000  H
  H10      1.0000 0.41759  0.33151  0.58921  Biso   1.000  H
  C9       1.0000 0.94417  0.28149  0.55071  Biso   1.000  C
  C10      1.0000 0.88822  0.41372  0.55030  Biso   1.000  C
  C11      1.0000 0.89477  0.47231  0.62151  Biso   1.000  C
  C12      1.0000 0.55469  0.07661  0.60627  Biso   1.000  C
  C13      1.0000 0.44805  0.17683  0.62016  Biso   1.000  C
  C14      1.0000 0.50720  0.25721  0.68361  Biso   1.000  C
  O3       1.0000 0.95074  0.20902  0.54093  Biso   1.000  O
  N9       1.0000 0.01349  0.32670  0.57485  Biso   1.000  N
  C15      1.0000 0.98956  0.41244  0.57505  Biso   1.000  C
  H11      1.0000 0.88184  0.44779  0.52319  Biso   1.000  H
  N10      1.0000 0.98253  0.44578  0.61878  Biso   1.000  N
  O4       1.0000 0.87248  0.51229  0.65263  Biso   1.000  O
  N11      1.0000 0.54139  0.06523  0.64926  Biso   1.000  N
  O5       1.0000 0.59928  0.03219  0.58496  Biso   1.000  O
  C16      1.0000 0.47257  0.12030  0.66284  Biso   1.000  C
  C17      1.0000 0.34577  0.17129  0.59990  Biso   1.000  C
  N12      1.0000 0.50878  0.17829  0.69845  Biso   1.000  N
  O6       1.0000 0.52837  0.31690  0.70704  Biso   1.000  O
  C18      1.0000 0.10736  0.29859  0.58651  Biso   1.000  C
  H12      1.0000 0.03036  0.44530  0.55920  Biso   1.000  H
  C19      1.0000 0.06285  0.46793  0.65104  Biso   1.000  C
  C20      1.0000 0.58409  0.99677  0.67586  Biso   1.000  C
  C21      1.0000 0.38785  0.07411  0.67350  Biso   1.000  C
  H13      1.0000 0.33510  0.20141  0.57181  Biso   1.000  H
  H14      1.0000 0.30867  0.19587  0.62040  Biso   1.000  H
  C22      1.0000 0.31577  0.08349  0.59110  Biso   1.000  C
  C23      1.0000 0.53520  0.15888  0.74572  Biso   1.000  C
  H15      1.0000 0.11466  0.24900  0.56989  Biso   1.000  H
  H16      1.0000 0.14884  0.33911  0.57721  Biso   1.000  H
  N13      1.0000 0.13476  0.28258  0.63429  Biso   1.000  N
  H17      1.0000 0.11024  0.48953  0.63499  Biso   1.000  H
  H18      1.0000 0.04553  0.51071  0.67040  Biso   1.000  H
  N14      1.0000 0.10165  0.40009  0.67896  Biso   1.000  N
  N15      1.0000 0.66355  0.01911  0.70846  Biso   1.000  N
  H19      1.0000 0.60296  0.95637  0.65559  Biso   1.000  H
  H20      1.0000 0.53794  0.97189  0.69150  Biso   1.000  H
  C24      1.0000 0.33916  0.02921  0.63240  Biso   1.000  C
  H21      1.0000 0.34498  0.11208  0.68381  Biso   1.000  H
  H22      1.0000 0.40728  0.03548  0.69750  Biso   1.000  H
  H23      1.0000 0.24929  0.08203  0.58102  Biso   1.000  H
  H24      1.0000 0.34588  0.06201  0.56699  Biso   1.000  H
  H25      1.0000 0.49356  0.11738  0.75391  Biso   1.000  H
  H26      1.0000 0.52767  0.20701  0.76352  Biso   1.000  H
  N16      1.0000 0.62929  0.13040  0.75698  Biso   1.000  N
  C25      1.0000 0.14309  0.20531  0.65111  Biso   1.000  C
  C26      1.0000 0.17087  0.34301  0.66851  Biso   1.000  C
  C27      1.0000 0.07974  0.38944  0.72137  Biso   1.000  C
  C28      1.0000 0.65529  0.04521  0.75344  Biso   1.000  C
  C29      1.0000 0.75227  0.99878  0.70377  Biso   1.000  C
  H27      1.0000 0.28236  0.00548  0.63951  Biso   1.000  H
  H28      1.0000 0.37865  0.98497  0.62542  Biso   1.000  H
  C30      1.0000 0.69715  0.17458  0.78297  Biso   1.000  C
  N17      1.0000 0.17216  0.20750  0.69639  Biso   1.000  N
  O7       1.0000 0.12847  0.14281  0.62842  Biso   1.000  O
  C31      1.0000 0.19269  0.29123  0.71257  Biso   1.000  C
  C32      1.0000 0.25825  0.38591  0.65758  Biso   1.000  C
  N18      1.0000 0.12705  0.32250  0.74046  Biso   1.000  N
  O8       1.0000 0.02868  0.43252  0.73944  Biso   1.000  O
  H29      1.0000 0.61497  0.00888  0.76760  Biso   1.000  H
  C33      1.0000 0.75620  0.04399  0.77859  Biso   1.000  C
  N19      1.0000 0.80898  0.01740  0.74339  Biso   1.000  N
  O9       1.0000 0.77718  0.96848  0.67063  Biso   1.000  O
  N20      1.0000 0.77341  0.12693  0.79319  Biso   1.000  N
  O10      1.0000 0.68911  0.24528  0.79477  Biso   1.000  O
  C34      1.0000 0.17969  0.13442  0.72367  Biso   1.000  C
  C35      1.0000 0.29364  0.30011  0.73550  Biso   1.000  C
  C36      1.0000 0.30589  0.43641  0.69649  Biso   1.000  C
  H30      1.0000 0.24117  0.42071  0.63152  Biso   1.000  H
  H31      1.0000 0.30139  0.34532  0.64980  Biso   1.000  H
  C37      1.0000 0.12097  0.29822  0.78665  Biso   1.000  C
  H32      1.0000 0.76358  0.00621  0.80411  Biso   1.000  H
  C38      1.0000 0.90290  0.98759  0.75414  Biso   1.000  C
  C39      1.0000 0.85289  0.14999  0.82562  Biso   1.000  C
  N21      1.0000 0.09797  0.11701  0.74423  Biso   1.000  N
  H33      1.0000 0.19107  0.08860  0.70502  Biso   1.000  H
  H34      1.0000 0.23280  0.13971  0.74730  Biso   1.000  H
  H35      1.0000 0.33419  0.27291  0.71760  Biso   1.000  H
  H36      1.0000 0.30138  0.27419  0.76490  Biso   1.000  H
  C40      1.0000 0.32099  0.38962  0.74099  Biso   1.000  C
  H37      1.0000 0.36550  0.45461  0.68982  Biso   1.000  H
  H38      1.0000 0.26853  0.48430  0.69969  Biso   1.000  H
  N22      1.0000 0.05851  0.23092  0.78941  Biso   1.000  N
  H39      1.0000 0.10025  0.34453  0.80249  Biso   1.000  H
  H40      1.0000 0.18241  0.28332  0.80172  Biso   1.000  H
  N23      1.0000 0.97210  0.05203  0.75782  Biso   1.000  N
  H41      1.0000 0.90941  0.95807  0.78250  Biso   1.000  H
  H42      1.0000 0.91450  0.94962  0.73091  Biso   1.000  H
  H43      1.0000 0.83809  0.19922  0.84089  Biso   1.000  H
  H44      1.0000 0.86539  0.10740  0.84811  Biso   1.000  H
  N24      1.0000 0.93651  0.16423  0.80583  Biso   1.000  N
  C41      1.0000 0.03344  0.05982  0.72768  Biso   1.000  C
  C42      1.0000 0.08617  0.14659  0.78867  Biso   1.000  C
  H45      1.0000 0.38585  0.39321  0.75431  Biso   1.000  H
  H46      1.0000 0.28477  0.41499  0.76170  Biso   1.000  H
  C43      1.0000 0.97356  0.24011  0.80276  Biso   1.000  C
  C44      1.0000 0.99917  0.09991  0.79821  Biso   1.000  C
  O11      1.0000 0.03184  0.02093  0.69268  Biso   1.000  O
  H47      1.0000 0.14057  0.13509  0.81139  Biso   1.000  H
  O12      1.0000 0.93756  0.30431  0.81099  Biso   1.000  O
  H48      1.0000 0.01375  0.06499  0.82481  Biso   1.000  H
  C45      1.0000 0.35522  0.63953  0.46652  Biso   1.000  C
  N25      1.0000 0.32444  0.59024  0.42673  Biso   1.000  N
  N26      1.0000 0.29432  0.70713  0.47303  Biso   1.000  N
  H49      1.0000 0.36924  0.60600  0.49369  Biso   1.000  H
  C46      1.0000 0.44285  0.68164  0.45509  Biso   1.000  C
  C47      1.0000 0.25776  0.52452  0.42640  Biso   1.000  C
  C48      1.0000 0.38254  0.59572  0.39528  Biso   1.000  C
  C49      1.0000 0.21173  0.69594  0.49342  Biso   1.000  C
  C50      1.0000 0.33977  0.78009  0.47299  Biso   1.000  C
  N27      1.0000 0.44694  0.65553  0.40930  Biso   1.000  N
  H50      1.0000 0.49827  0.66423  0.47569  Biso   1.000  H
  N28      1.0000 0.42451  0.76695  0.46072  Biso   1.000  N
  N29      1.0000 0.16203  0.55239  0.41618  Biso   1.000  N
  H51      1.0000 0.26878  0.48442  0.40411  Biso   1.000  H
  H52      1.0000 0.26711  0.49824  0.45570  Biso   1.000  H
  O13      1.0000 0.37854  0.55531  0.36133  Biso   1.000  O
  N30      1.0000 0.13178  0.67099  0.46102  Biso   1.000  N
  H53      1.0000 0.19737  0.74650  0.50752  Biso   1.000  H
  H54      1.0000 0.22396  0.65492  0.51679  Biso   1.000  H
  O14      1.0000 0.30993  0.84654  0.48354  Biso   1.000  O
  C51      1.0000 0.52782  0.66794  0.38783  Biso   1.000  C
  C52      1.0000 0.49232  0.82901  0.45627  Biso   1.000  C
  C53      1.0000 0.10532  0.52769  0.37849  Biso   1.000  C
  C54      1.0000 0.11186  0.58628  0.44969  Biso   1.000  C
  C55      1.0000 0.05593  0.71851  0.44932  Biso   1.000  C
  H55      1.0000 0.53374  0.62219  0.36800  Biso   1.000  H
  H56      1.0000 0.58256  0.66849  0.41079  Biso   1.000  H
  N31      1.0000 0.52557  0.74255  0.36183  Biso   1.000  N
  H57      1.0000 0.55354  0.80820  0.46831  Biso   1.000  H
  H58      1.0000 0.48065  0.87550  0.47441  Biso   1.000  H
  N32      1.0000 0.49262  0.85560  0.41062  Biso   1.000  N
  O15      1.0000 0.12761  0.48771  0.34740  Biso   1.000  O
  N33      1.0000 0.01755  0.55422  0.38122  Biso   1.000  N
  C56      1.0000 0.01054  0.58762  0.42498  Biso   1.000  C
  H59      1.0000 0.11824  0.55221  0.47680  Biso   1.000  H
  N34      1.0000 0.98667  0.67330  0.42515  Biso   1.000  N
  O16      1.0000 0.04936  0.79104  0.45910  Biso   1.000  O
  C57      1.0000 0.55205  0.82323  0.37987  Biso   1.000  C
  C58      1.0000 0.49296  0.74279  0.31642  Biso   1.000  C
  C59      1.0000 0.44546  0.92345  0.39373  Biso   1.000  C
  C60      1.0000 0.93723  0.53213  0.34895  Biso   1.000  C
  H60      1.0000 0.96972  0.55470  0.44079  Biso   1.000  H
  C61      1.0000 0.89273  0.70141  0.41348  Biso   1.000  C
  C62      1.0000 0.52751  0.87970  0.33715  Biso   1.000  C
  C63      1.0000 0.65431  0.82871  0.40010  Biso   1.000  C
  N35      1.0000 0.49130  0.82171  0.30155  Biso   1.000  N
  O17      1.0000 0.47172  0.68310  0.29295  Biso   1.000  O
  N36      1.0000 0.45876  0.93483  0.35074  Biso   1.000  N
  O18      1.0000 0.40081  0.96781  0.41507  Biso   1.000  O
  H61      1.0000 0.88984  0.51053  0.36500  Biso   1.000  H
  H62      1.0000 0.95455  0.48929  0.32960  Biso   1.000  H
  N37      1.0000 0.89843  0.59991  0.32104  Biso   1.000  N
  H63      1.0000 0.88543  0.75100  0.43011  Biso   1.000  H
  H64      1.0000 0.85124  0.66089  0.42279  Biso   1.000  H
  N38      1.0000 0.86532  0.71742  0.36571  Biso   1.000  N
  C64      1.0000 0.61224  0.92595  0.32650  Biso   1.000  C
  H65      1.0000 0.66507  0.79865  0.42822  Biso   1.000  H
  H66      1.0000 0.69142  0.80413  0.37960  Biso   1.000  H
  C65      1.0000 0.68432  0.91651  0.40890  Biso   1.000  C
  C66      1.0000 0.46495  0.84112  0.25428  Biso   1.000  C
  C67      1.0000 0.41601  0.00323  0.32417  Biso   1.000  C
  C68      1.0000 0.82922  0.65699  0.33152  Biso   1.000  C
  C69      1.0000 0.92035  0.61062  0.27862  Biso   1.000  C
  C70      1.0000 0.85706  0.79469  0.34889  Biso   1.000  C
  C71      1.0000 0.66093  0.97085  0.36760  Biso   1.000  C
  H67      1.0000 0.65512  0.88792  0.31622  Biso   1.000  H
  H68      1.0000 0.59280  0.96452  0.30249  Biso   1.000  H
  H69      1.0000 0.75088  0.91804  0.41901  Biso   1.000  H
  H70      1.0000 0.65428  0.93799  0.43301  Biso   1.000  H
  H71      1.0000 0.50652  0.88262  0.24609  Biso   1.000  H
  H72      1.0000 0.47243  0.79299  0.23651  Biso   1.000  H
  N39      1.0000 0.37080  0.86960  0.24302  Biso   1.000  N
  N40      1.0000 0.33654  0.98095  0.29157  Biso   1.000  N
  H73      1.0000 0.39712  0.04363  0.34440  Biso   1.000  H
  H74      1.0000 0.46215  0.02811  0.30850  Biso   1.000  H
  C72      1.0000 0.80746  0.70884  0.28742  Biso   1.000  C
  C73      1.0000 0.74183  0.61409  0.34241  Biso   1.000  C
  N41      1.0000 0.87303  0.67750  0.25954  Biso   1.000  N
  O19      1.0000 0.97140  0.56754  0.26055  Biso   1.000  O
  N42      1.0000 0.82793  0.79250  0.30361  Biso   1.000  N
  O20      1.0000 0.87161  0.85719  0.37158  Biso   1.000  O
  H75      1.0000 0.71774  0.99452  0.36052  Biso   1.000  H
  H76      1.0000 0.62144  0.01503  0.37461  Biso   1.000  H
  C74      1.0000 0.30293  0.82542  0.21703  Biso   1.000  C
  C75      1.0000 0.34479  0.95485  0.24656  Biso   1.000  C
  C76      1.0000 0.24782  0.00122  0.29622  Biso   1.000  C
  C77      1.0000 0.70645  0.69989  0.26450  Biso   1.000  C
  C78      1.0000 0.69427  0.56359  0.30354  Biso   1.000  C
  H77      1.0000 0.75892  0.57929  0.36851  Biso   1.000  H
  H78      1.0000 0.69876  0.65474  0.35020  Biso   1.000  H
  C79      1.0000 0.87913  0.70184  0.21338  Biso   1.000  C
  C80      1.0000 0.82039  0.86564  0.27633  Biso   1.000  C
  N43      1.0000 0.22675  0.87313  0.20684  Biso   1.000  N
  O21      1.0000 0.31105  0.75472  0.20526  Biso   1.000  O
  C81      1.0000 0.24395  0.95601  0.22141  Biso   1.000  C
  H79      1.0000 0.38512  0.99112  0.23240  Biso   1.000  H
  N44      1.0000 0.19111  0.98260  0.25661  Biso   1.000  N
  O22      1.0000 0.22291  0.03152  0.32940  Biso   1.000  O
  H80      1.0000 0.66590  0.72709  0.28240  Biso   1.000  H
  H81      1.0000 0.69871  0.72581  0.23510  Biso   1.000  H
  C82      1.0000 0.67916  0.61044  0.25900  Biso   1.000  C
  H82      1.0000 0.63466  0.54539  0.31021  Biso   1.000  H
  H83      1.0000 0.73155  0.51570  0.30030  Biso   1.000  H
  H84      1.0000 0.89983  0.65553  0.19750  Biso   1.000  H
  H85      1.0000 0.81775  0.71675  0.19831  Biso   1.000  H
  N45      1.0000 0.94164  0.76914  0.21059  Biso   1.000  N
  H86      1.0000 0.80903  0.91140  0.29501  Biso   1.000  H
  H87      1.0000 0.76735  0.86035  0.25270  Biso   1.000  H
  N46      1.0000 0.90211  0.88305  0.25576  Biso   1.000  N
  C83      1.0000 0.14719  0.85001  0.17438  Biso   1.000  C
  H88      1.0000 0.23650  0.99385  0.19589  Biso   1.000  H
  C84      1.0000 0.09725  0.01241  0.24585  Biso   1.000  C
  H89      1.0000 0.61425  0.60679  0.24572  Biso   1.000  H
  H90      1.0000 0.71531  0.58501  0.23830  Biso   1.000  H
  C85      1.0000 0.02653  0.75995  0.19727  Biso   1.000  C
  C86      1.0000 0.91392  0.85341  0.21136  Biso   1.000  C
  C87      1.0000 0.96664  0.94025  0.27232  Biso   1.000  C
  N47      1.0000 0.06365  0.83583  0.19417  Biso   1.000  N
  H91      1.0000 0.16199  0.80084  0.15910  Biso   1.000  H
  H92      1.0000 0.13470  0.89260  0.15189  Biso   1.000  H
  N48      1.0000 0.02806  0.94803  0.24221  Biso   1.000  N
  H93      1.0000 0.09074  0.04193  0.21750  Biso   1.000  H
  H94      1.0000 0.08566  0.05044  0.26912  Biso   1.000  H
  O23      1.0000 0.06252  0.69569  0.18901  Biso   1.000  O
  C88      1.0000 0.00091  0.90015  0.20179  Biso   1.000  C
  H95      1.0000 0.85951  0.86491  0.18860  Biso   1.000  H
  O24      1.0000 0.96824  0.97913  0.30732  Biso   1.000  O
  H96      1.0000 0.98633  0.93501  0.17518  Biso   1.000  H
  C89      1.0000 0.64730  0.64999  0.67437  Biso   1.000  C
  N49      1.0000 0.56370  0.66423  0.69420  Biso   1.000  N
  H97      1.0000 0.66203  0.69922  0.65910  Biso   1.000  H
  H98      1.0000 0.63475  0.60740  0.65192  Biso   1.000  H
  N50      1.0000 0.72679  0.62693  0.70684  Biso   1.000  N
  C90      1.0000 0.50095  0.59991  0.70178  Biso   1.000  C
  C91      1.0000 0.52657  0.74011  0.69727  Biso   1.000  C
  C92      1.0000 0.74400  0.54399  0.72144  Biso   1.000  C
  C93      1.0000 0.80297  0.67464  0.71702  Biso   1.000  C
  H99      1.0000 0.48638  0.56499  0.67522  Biso   1.000  H
  C94      1.0000 0.41396  0.64659  0.71136  Biso   1.000  C
  N51      1.0000 0.52810  0.55203  0.74221  Biso   1.000  N
  N52      1.0000 0.44168  0.73092  0.71058  Biso   1.000  N
  O25      1.0000 0.56258  0.80431  0.68904  Biso   1.000  O
  N53      1.0000 0.69115  0.51740  0.75661  Biso   1.000  N
  C95      1.0000 0.84490  0.54521  0.74656  Biso   1.000  C
  H100     1.0000 0.73656  0.50621  0.69592  Biso   1.000  H
  N54      1.0000 0.87084  0.63040  0.74302  Biso   1.000  N
  O26      1.0000 0.81109  0.74535  0.70526  Biso   1.000  O
  H101     1.0000 0.35956  0.63509  0.68860  Biso   1.000  H
  N55      1.0000 0.40215  0.61701  0.75576  Biso   1.000  N
  C96      1.0000 0.59730  0.48759  0.74585  Biso   1.000  C
  C97      1.0000 0.46669  0.55982  0.77232  Biso   1.000  C
  C98      1.0000 0.37917  0.79822  0.71338  Biso   1.000  C
  C99      1.0000 0.74786  0.49878  0.79622  Biso   1.000  C
  N56      1.0000 0.83658  0.51911  0.79157  Biso   1.000  N
  H102     1.0000 0.88516  0.50888  0.73240  Biso   1.000  H
  C100     1.0000 0.96499  0.65894  0.75428  Biso   1.000  C
  C101     1.0000 0.32052  0.63442  0.77636  Biso   1.000  C
  H103     1.0000 0.59079  0.45814  0.71750  Biso   1.000  H
  H104     1.0000 0.58570  0.44962  0.76911  Biso   1.000  H
  O27      1.0000 0.46829  0.52093  0.80731  Biso   1.000  O
  H105     1.0000 0.39987  0.84453  0.69750  Biso   1.000  H
  H106     1.0000 0.31779  0.78332  0.69831  Biso   1.000  H
  N57      1.0000 0.37308  0.82250  0.75957  Biso   1.000  N
  O28      1.0000 0.72302  0.46854  0.82940  Biso   1.000  O
  C102     1.0000 0.91612  0.49684  0.82417  Biso   1.000  C
  H107     1.0000 0.97247  0.70701  0.73651  Biso   1.000  H
  N58      1.0000 0.99141  0.67829  0.80155  Biso   1.000  N
  H108     1.0000 0.00657  0.61744  0.74612  Biso   1.000  H
  H109     1.0000 0.30907  0.58860  0.79501  Biso   1.000  H
  H110     1.0000 0.26739  0.63971  0.75269  Biso   1.000  H
  N59      1.0000 0.32798  0.70750  0.80364  Biso   1.000  N
  C103     1.0000 0.30751  0.79123  0.78742  Biso   1.000  C
  C104     1.0000 0.42039  0.88944  0.77862  Biso   1.000  C
  H111     1.0000 0.89716  0.45643  0.84440  Biso   1.000  H
  H112     1.0000 0.96219  0.47189  0.80849  Biso   1.000  H
  N60      1.0000 0.95881  0.56523  0.85077  Biso   1.000  N
  C105     1.0000 0.02756  0.62030  0.83715  Biso   1.000  C
  C106     1.0000 0.99300  0.75721  0.81642  Biso   1.000  C
  C107     1.0000 0.35710  0.70531  0.84888  Biso   1.000  C
  C108     1.0000 0.32926  0.84301  0.83152  Biso   1.000  C
  C109     1.0000 0.20649  0.80011  0.76449  Biso   1.000  C
  N61      1.0000 0.39848  0.90015  0.82104  Biso   1.000  N
  O29      1.0000 0.47144  0.93252  0.76055  Biso   1.000  O
  C110     1.0000 0.94550  0.57661  0.89373  Biso   1.000  C
  C111     1.0000 0.05209  0.67683  0.87987  Biso   1.000  C
  C112     1.0000 0.11228  0.57411  0.82650  Biso   1.000  C
  O30      1.0000 0.97176  0.81690  0.79295  Biso   1.000  O
  N62      1.0000 0.02561  0.75751  0.86183  Biso   1.000  N
  N63      1.0000 0.36537  0.78265  0.86574  Biso   1.000  N
  O31      1.0000 0.37172  0.64281  0.87157  Biso   1.000  O
  C113     1.0000 0.24188  0.88591  0.84241  Biso   1.000  C
  H113     1.0000 0.16601  0.77291  0.78240  Biso   1.000  H
  H114     1.0000 0.19875  0.77425  0.73509  Biso   1.000  H
  C114     1.0000 0.17920  0.88962  0.75900  Biso   1.000  C
  C115     1.0000 0.43727  0.96793  0.84895  Biso   1.000  C
  N64      1.0000 0.99266  0.64440  0.91062  Biso   1.000  N
  O32      1.0000 0.90093  0.53219  0.91507  Biso   1.000  O
  C116     1.0000 0.15436  0.67129  0.90010  Biso   1.000  C
  C117     1.0000 0.16097  0.52921  0.86760  Biso   1.000  C
  H115     1.0000 0.15516  0.61208  0.81621  Biso   1.000  H
  H116     1.0000 0.09285  0.53554  0.80249  Biso   1.000  H
  C118     1.0000 0.02786  0.83212  0.88783  Biso   1.000  C
  C119     1.0000 0.39277  0.79865  0.91348  Biso   1.000  C
  C120     1.0000 0.19432  0.93641  0.80354  Biso   1.000  C
  H117     1.0000 0.25897  0.92071  0.86851  Biso   1.000  H
  H118     1.0000 0.19880  0.84532  0.85020  Biso   1.000  H
  H119     1.0000 0.11429  0.89321  0.74572  Biso   1.000  H
  H120     1.0000 0.21535  0.91499  0.73830  Biso   1.000  H
  H121     1.0000 0.38988  0.98953  0.86500  Biso   1.000  H
  N65      1.0000 0.51760  0.94584  0.88125  Biso   1.000  N
  H122     1.0000 0.45459  0.01071  0.82960  Biso   1.000  H
  C121     1.0000 0.99236  0.67099  0.95627  Biso   1.000  C
  H123     1.0000 0.16511  0.70141  0.92822  Biso   1.000  H
  H124     1.0000 0.19146  0.69594  0.87960  Biso   1.000  H
  C122     1.0000 0.18436  0.58349  0.90890  Biso   1.000  C
  H125     1.0000 0.12149  0.48503  0.87461  Biso   1.000  H
  H126     1.0000 0.21778  0.50554  0.86052  Biso   1.000  H
  N66      1.0000 0.94698  0.84453  0.90930  Biso   1.000  N
  H127     1.0000 0.03378  0.87781  0.86800  Biso   1.000  H
  H128     1.0000 0.08261  0.83151  0.91082  Biso   1.000  H
  H129     1.0000 0.38547  0.74900  0.93010  Biso   1.000  H
  H130     1.0000 0.35129  0.83911  0.92282  Biso   1.000  H
  N67      1.0000 0.48672  0.82670  0.92518  Biso   1.000  N
  H131     1.0000 0.13470  0.95461  0.81021  Biso   1.000  H
  H132     1.0000 0.23159  0.98430  0.80030  Biso   1.000  H
  C123     1.0000 0.51058  0.91244  0.92498  Biso   1.000  C
  C124     1.0000 0.60536  0.97231  0.87849  Biso   1.000  C
  H133     1.0000 0.98069  0.62450  0.97441  Biso   1.000  H
  N68      1.0000 0.92464  0.73311  0.96075  Biso   1.000  N
  H134     1.0000 0.05358  0.69180  0.96830  Biso   1.000  H
  H135     1.0000 0.25092  0.58203  0.91901  Biso   1.000  H
  H136     1.0000 0.15432  0.56201  0.93300  Biso   1.000  H
  C125     1.0000 0.94289  0.81843  0.95509  Biso   1.000  C
  C126     1.0000 0.88258  0.90434  0.89528  Biso   1.000  C
  C127     1.0000 0.55597  0.78149  0.94932  Biso   1.000  C
  H137     1.0000 0.46977  0.94530  0.94079  Biso   1.000  H
  C128     1.0000 0.61190  0.91372  0.94969  Biso   1.000  C
  N69      1.0000 0.66207  0.94761  0.91618  Biso   1.000  N
  O33      1.0000 0.62772  0.01235  0.84740  Biso   1.000  O
  C129     1.0000 0.83982  0.71991  0.97302  Biso   1.000  C
  C130     1.0000 0.85527  0.86053  0.96652  Biso   1.000  C
  H138     1.0000 0.99832  0.83583  0.97572  Biso   1.000  H
  N70      1.0000 0.82448  0.90982  0.92673  Biso   1.000  N
  O34      1.0000 0.87858  0.94475  0.86132  Biso   1.000  O
  N71      1.0000 0.63182  0.82901  0.96102  Biso   1.000  N
  O35      1.0000 0.54940  0.70902  0.95910  Biso   1.000  O
  H139     1.0000 0.61828  0.94785  0.97680  Biso   1.000  H
  C131     1.0000 0.75780  0.97554  0.92640  Biso   1.000  C
  N72      1.0000 0.79443  0.79293  0.97302  Biso   1.000  N
  O36      1.0000 0.80998  0.65352  0.98354  Biso   1.000  O
  H140     1.0000 0.86929  0.89400  0.99372  Biso   1.000  H
  C132     1.0000 0.71184  0.80413  0.99342  Biso   1.000  C
  H141     1.0000 0.76882  0.01564  0.90411  Biso   1.000  H
  H142     1.0000 0.76722  0.00183  0.95569  Biso   1.000  H
  H143     1.0000 0.69734  0.75350  0.00751  Biso   1.000  H
  H144     1.0000 0.72394  0.84514  0.01682  Biso   1.000  H
  C133     1.0000 0.35285  0.35001  0.32562  Biso   1.000  C
  N73      1.0000 0.27337  0.37313  0.29319  Biso   1.000  N
  H145     1.0000 0.33805  0.30078  0.34090  Biso   1.000  H
  H146     1.0000 0.36535  0.39260  0.34811  Biso   1.000  H
  N74      1.0000 0.43646  0.33583  0.30583  Biso   1.000  N
  C134     1.0000 0.19711  0.32542  0.28297  Biso   1.000  C
  C135     1.0000 0.25616  0.45601  0.27859  Biso   1.000  C
  C136     1.0000 0.49913  0.40009  0.29821  Biso   1.000  C
  C137     1.0000 0.47352  0.25989  0.30276  Biso   1.000  C
  O37      1.0000 0.18906  0.25472  0.29474  Biso   1.000  O
  N75      1.0000 0.12924  0.36960  0.25698  Biso   1.000  N
  C138     1.0000 0.15525  0.45479  0.25344  Biso   1.000  C
  H147     1.0000 0.26354  0.49379  0.30411  Biso   1.000  H
  N76      1.0000 0.30894  0.48260  0.24339  Biso   1.000  N
  N77      1.0000 0.47205  0.44803  0.25779  Biso   1.000  N
  H148     1.0000 0.51371  0.43501  0.32481  Biso   1.000  H
  C139     1.0000 0.58612  0.35341  0.28864  Biso   1.000  C
  N78      1.0000 0.55840  0.26908  0.28941  Biso   1.000  N
  O38      1.0000 0.43752  0.19569  0.31099  Biso   1.000  O
  C140     1.0000 0.03509  0.34112  0.24572  Biso   1.000  C
  H149     1.0000 0.11493  0.49112  0.26760  Biso   1.000  H
  N79      1.0000 0.16350  0.48089  0.20843  Biso   1.000  N
  C141     1.0000 0.25222  0.50122  0.20378  Biso   1.000  C
  C142     1.0000 0.40286  0.51241  0.25415  Biso   1.000  C
  C143     1.0000 0.53340  0.44018  0.22768  Biso   1.000  C
  H150     1.0000 0.64053  0.36491  0.31139  Biso   1.000  H
  N80      1.0000 0.59793  0.38299  0.24423  Biso   1.000  N
  C144     1.0000 0.62092  0.20178  0.28665  Biso   1.000  C
  H151     1.0000 0.02763  0.29299  0.26352  Biso   1.000  H
  N81      1.0000 0.00874  0.32171  0.19845  Biso   1.000  N
  H152     1.0000 0.99352  0.38262  0.25391  Biso   1.000  H
  C145     1.0000 0.08403  0.50323  0.17583  Biso   1.000  C
  O39      1.0000 0.27714  0.53152  0.17063  Biso   1.000  O
  H153     1.0000 0.40930  0.54193  0.28250  Biso   1.000  H
  H154     1.0000 0.41446  0.55038  0.23092  Biso   1.000  H
  O40      1.0000 0.53180  0.47907  0.19268  Biso   1.000  O
  C146     1.0000 0.67965  0.36558  0.22367  Biso   1.000  C
  H155     1.0000 0.60021  0.15553  0.30249  Biso   1.000  H
  H156     1.0000 0.68230  0.21668  0.30172  Biso   1.000  H
  N82      1.0000 0.62701  0.17750  0.24046  Biso   1.000  N
  C147     1.0000 0.00709  0.24279  0.18361  Biso   1.000  C
  C148     1.0000 0.97253  0.37970  0.16284  Biso   1.000  C
  N83      1.0000 0.04128  0.43483  0.14926  Biso   1.000  N
  H157     1.0000 0.10292  0.54363  0.15560  Biso   1.000  H
  H158     1.0000 0.03790  0.52811  0.19150  Biso   1.000  H
  H159     1.0000 0.69101  0.41140  0.20499  Biso   1.000  H
  H160     1.0000 0.73269  0.36029  0.24730  Biso   1.000  H
  N84      1.0000 0.67212  0.29250  0.19639  Biso   1.000  N
  C149     1.0000 0.69265  0.20884  0.21257  Biso   1.000  C
  C150     1.0000 0.57969  0.11062  0.22137  Biso   1.000  C
  O41      1.0000 0.02833  0.18310  0.20705  Biso   1.000  O
  N85      1.0000 0.97454  0.24249  0.13817  Biso   1.000  N
  C151     1.0000 0.94800  0.32323  0.12013  Biso   1.000  C
  C152     1.0000 0.88781  0.42589  0.17350  Biso   1.000  C
  C153     1.0000 0.05458  0.42339  0.10627  Biso   1.000  C
  C154     1.0000 0.64298  0.29469  0.15111  Biso   1.000  C
  C155     1.0000 0.67082  0.15699  0.16848  Biso   1.000  C
  C156     1.0000 0.79359  0.19989  0.23550  Biso   1.000  C
  N86      1.0000 0.60161  0.09991  0.17896  Biso   1.000  N
  O42      1.0000 0.52864  0.06748  0.23945  Biso   1.000  O
  C157     1.0000 0.97223  0.16788  0.11217  Biso   1.000  C
  N87      1.0000 0.00743  0.35560  0.08941  Biso   1.000  N
  C158     1.0000 0.84573  0.32871  0.09990  Biso   1.000  C
  C159     1.0000 0.83911  0.47079  0.13240  Biso   1.000  C
  H161     1.0000 0.84494  0.38792  0.18382  Biso   1.000  H
  H162     1.0000 0.90724  0.46452  0.19750  Biso   1.000  H
  O43      1.0000 0.09923  0.46781  0.08493  Biso   1.000  O
  N88      1.0000 0.63472  0.21742  0.13429  Biso   1.000  N
  O44      1.0000 0.62843  0.35719  0.12842  Biso   1.000  O
  C160     1.0000 0.75821  0.11409  0.15759  Biso   1.000  C
  H163     1.0000 0.83414  0.22709  0.21760  Biso   1.000  H
  H164     1.0000 0.80133  0.22581  0.26490  Biso   1.000  H
  C161     1.0000 0.82095  0.11038  0.24100  Biso   1.000  C
  C162     1.0000 0.56281  0.03213  0.15104  Biso   1.000  C
  N89      1.0000 0.05310  0.15553  0.09069  Biso   1.000  N
  H165     1.0000 0.96631  0.12219  0.13200  Biso   1.000  H
  H166     1.0000 0.91748  0.16849  0.08921  Biso   1.000  H
  C163     1.0000 0.00772  0.32901  0.04373  Biso   1.000  C
  H167     1.0000 0.83499  0.29859  0.07181  Biso   1.000  H
  H168     1.0000 0.80862  0.30413  0.12040  Biso   1.000  H
  C164     1.0000 0.81573  0.41651  0.09110  Biso   1.000  C
  H169     1.0000 0.87860  0.51503  0.12539  Biso   1.000  H
  H170     1.0000 0.78232  0.49452  0.13951  Biso   1.000  H
  C165     1.0000 0.60732  0.20141  0.08651  Biso   1.000  C
  C166     1.0000 0.80585  0.06359  0.19649  Biso   1.000  C
  H171     1.0000 0.74112  0.07929  0.13149  Biso   1.000  H
  H172     1.0000 0.80128  0.15468  0.14980  Biso   1.000  H
  H173     1.0000 0.88580  0.10679  0.25431  Biso   1.000  H
  H174     1.0000 0.78473  0.08501  0.26170  Biso   1.000  H
  H175     1.0000 0.61020  0.01053  0.13500  Biso   1.000  H
  N90      1.0000 0.48249  0.05422  0.11878  Biso   1.000  N
  H176     1.0000 0.54549  0.98929  0.17040  Biso   1.000  H
  C167     1.0000 0.05719  0.18157  0.04491  Biso   1.000  C
  C168     1.0000 0.11750  0.09572  0.10472  Biso   1.000  C
  H177     1.0000 0.01940  0.37550  0.02559  Biso   1.000  H
  N91      1.0000 0.07553  0.26689  0.03928  Biso   1.000  N
  H178     1.0000 0.94650  0.30820  0.03169  Biso   1.000  H
  H179     1.0000 0.74923  0.41804  0.08098  Biso   1.000  H
  H180     1.0000 0.84583  0.43799  0.06699  Biso   1.000  H
  H181     1.0000 0.61462  0.25100  0.06989  Biso   1.000  H
  H182     1.0000 0.64880  0.16089  0.07721  Biso   1.000  H
  N92      1.0000 0.51338  0.17330  0.07485  Biso   1.000  N
  H183     1.0000 0.86539  0.04539  0.18982  Biso   1.000  H
  H184     1.0000 0.76849  0.01570  0.19970  Biso   1.000  H
  C169     1.0000 0.39472  0.02769  0.12151  Biso   1.000  C
  C170     1.0000 0.48950  0.08762  0.07502  Biso   1.000  C
  C171     1.0000 0.14482  0.13953  0.03348  Biso   1.000  C
  H185     1.0000 0.00177  0.16423  0.02431  Biso   1.000  H
  N93      1.0000 0.17561  0.09018  0.07330  Biso   1.000  N
  O45      1.0000 0.12150  0.05531  0.13867  Biso   1.000  O
  C172     1.0000 0.16027  0.28009  0.02701  Biso   1.000  C
  C173     1.0000 0.44411  0.21851  0.05067  Biso   1.000  C
  N94      1.0000 0.33802  0.05239  0.08382  Biso   1.000  N
  O46      1.0000 0.37243  0.98771  0.15260  Biso   1.000  O
  C174     1.0000 0.38818  0.08628  0.05030  Biso   1.000  C
  H186     1.0000 0.53032  0.05470  0.05920  Biso   1.000  H
  H187     1.0000 0.13080  0.10600  0.00630  Biso   1.000  H
  N95      1.0000 0.20572  0.20713  0.02697  Biso   1.000  N
  C175     1.0000 0.24228  0.02452  0.07360  Biso   1.000  C
  O47      1.0000 0.19012  0.34654  0.01649  Biso   1.000  O
  N96      1.0000 0.36833  0.17099  0.03897  Biso   1.000  N
  O48      1.0000 0.45068  0.29098  0.04090  Biso   1.000  O
  H188     1.0000 0.38180  0.05221  0.02320  Biso   1.000  H
  C176     1.0000 0.28831  0.19587  0.00657  Biso   1.000  C
  H189     1.0000 0.23133  0.98442  0.09589  Biso   1.000  H
  H190     1.0000 0.23293  0.99817  0.04430  Biso   1.000  H
  H191     1.0000 0.30275  0.24650  0.99252  Biso   1.000  H
  H192     1.0000 0.27615  0.15492  0.98321  Biso   1.000  H
