data_image0
_cell_length_a       14.992
_cell_length_b       18.529
_cell_length_c       12.469
_cell_angle_alpha    90
_cell_angle_beta     91.87
_cell_angle_gamma    90

_symmetry_space_group_name_H-M    "P 1"
_symmetry_int_tables_number       1

loop_
  _symmetry_equiv_pos_as_xyz
  'x, y, z'

loop_
  _atom_site_label
  _atom_site_occupancy
  _atom_site_fract_x
  _atom_site_fract_y
  _atom_site_fract_z
  _atom_site_thermal_displace_type
  _atom_site_B_iso_or_equiv
  _atom_site_type_symbol
  C1       1.0000 0.17693  0.17869  0.44382  Biso   1.000  C
  N1       1.0000 0.10673  0.22322  0.46957  Biso   1.000  N
  N2       1.0000 0.10673  0.22316  0.46957  Biso   1.000  N
  N3       1.0000 0.17675  0.17049  0.33613  Biso   1.000  N
  O1       1.0000 0.23217  0.15387  0.50809  Biso   1.000  O
  C2       1.0000 0.10674  0.21367  0.28060  Biso   1.000  C
  C3       1.0000 0.24445  0.13201  0.28221  Biso   1.000  C
  C4       1.0000 0.24445  0.13196  0.28221  Biso   1.000  C
  C5       1.0000 0.06053  0.25209  0.37706  Biso   1.000  C
  C6       1.0000 0.10267  0.25479  0.57557  Biso   1.000  C
  C7       1.0000 0.13837  0.27460  0.20767  Biso   1.000  C
  N4       1.0000 0.03581  0.17087  0.23318  Biso   1.000  N
  C8       1.0000 0.13844  0.27460  0.20767  Biso   1.000  C
  H1       1.0000 0.29664  0.12829  0.32987  Biso   1.000  H
  H2       1.0000 0.26124  0.15980  0.22010  Biso   1.000  H
  N5       1.0000 0.21955  0.06050  0.24706  Biso   1.000  N
  C9       1.0000 0.05903  0.33628  0.36847  Biso   1.000  C
  N6       1.0000 0.96937  0.22878  0.36333  Biso   1.000  N
  N7       1.0000 0.96944  0.22878  0.36333  Biso   1.000  N
  N8       1.0000 0.03062  0.22878  0.63672  Biso   1.000  N
  H3       1.0000 0.09720  0.30665  0.56835  Biso   1.000  H
  H4       1.0000 0.15836  0.24481  0.61481  Biso   1.000  H
  H5       1.0000 0.09727  0.30665  0.56835  Biso   1.000  H
  H6       1.0000 0.18602  0.30061  0.24546  Biso   1.000  H
  H7       1.0000 0.18602  0.30056  0.24546  Biso   1.000  H
  H8       1.0000 0.16361  0.25295  0.14460  Biso   1.000  H
  C10      1.0000 0.06720  0.32905  0.17067  Biso   1.000  C
  C11      1.0000 0.04221  0.13088  0.13216  Biso   1.000  C
  C12      1.0000 0.95588  0.18490  0.27659  Biso   1.000  C
  C13      1.0000 0.95595  0.18490  0.27659  Biso   1.000  C
  C14      1.0000 0.24792  0.00000  0.30187  Biso   1.000  C
  C15      1.0000 0.17396  0.04210  0.14500  Biso   1.000  C
  H9       1.0000 0.11914  0.35377  0.38372  Biso   1.000  H
  C16      1.0000 0.02623  0.36877  0.26127  Biso   1.000  C
  H10      1.0000 0.02158  0.35469  0.42416  Biso   1.000  H
  H11      1.0000 0.02165  0.35469  0.42416  Biso   1.000  H
  C17      1.0000 0.89739  0.25479  0.42440  Biso   1.000  C
  C18      1.0000 0.89746  0.25479  0.42440  Biso   1.000  C
  C19      1.0000 0.04411  0.18490  0.72338  Biso   1.000  C
  C20      1.0000 0.93953  0.25209  0.62292  Biso   1.000  C
  H12      1.0000 0.02061  0.30390  0.13007  Biso   1.000  H
  H13      1.0000 0.09399  0.36375  0.12309  Biso   1.000  H
  H14      1.0000 0.09406  0.36375  0.12309  Biso   1.000  H
  H15      1.0000 0.07933  0.15818  0.08441  Biso   1.000  H
  N9       1.0000 0.07841  0.05969  0.14387  Biso   1.000  N
  H16      1.0000 0.98313  0.12742  0.09862  Biso   1.000  H
  H17      1.0000 0.98313  0.12737  0.09862  Biso   1.000  H
  O2       1.0000 0.88278  0.16169  0.24233  Biso   1.000  O
  O3       1.0000 0.88284  0.16169  0.24233  Biso   1.000  O
  N10      1.0000 0.21955  0.93950  0.24706  Biso   1.000  N
  O4       1.0000 0.29578  0.00000  0.38179  Biso   1.000  O
  O5       1.0000 0.29585  0.00000  0.38179  Biso   1.000  O
  C21      1.0000 0.22311  0.07340  0.05111  Biso   1.000  C
  C22      1.0000 0.17396  0.95790  0.14500  Biso   1.000  C
  H18      1.0000 0.96169  0.36537  0.25477  Biso   1.000  H
  H19      1.0000 0.96176  0.36537  0.25477  Biso   1.000  H
  H20      1.0000 0.04250  0.41945  0.25846  Biso   1.000  H
  H21      1.0000 0.84170  0.24481  0.38516  Biso   1.000  H
  N11      1.0000 0.89333  0.22322  0.53040  Biso   1.000  N
  H22      1.0000 0.90279  0.30665  0.43162  Biso   1.000  H
  N12      1.0000 0.89333  0.22316  0.53040  Biso   1.000  N
  H23      1.0000 0.90286  0.30665  0.43162  Biso   1.000  H
  O6       1.0000 0.11722  0.16169  0.75772  Biso   1.000  O
  N13      1.0000 0.96418  0.17087  0.76679  Biso   1.000  N
  N14      1.0000 0.96425  0.17087  0.76679  Biso   1.000  N
  C23      1.0000 0.94103  0.33628  0.63150  Biso   1.000  C
  C24      1.0000 0.89332  0.21367  0.71937  Biso   1.000  C
  C25      1.0000 0.02523  0.00000  0.13561  Biso   1.000  C
  C26      1.0000 0.24445  0.86799  0.28221  Biso   1.000  C
  H24      1.0000 0.22983  0.12510  0.06042  Biso   1.000  H
  H25      1.0000 0.18883  0.06493  0.98499  Biso   1.000  H
  H26      1.0000 0.18883  0.06487  0.98499  Biso   1.000  H
  C27      1.0000 0.31643  0.03772  0.04421  Biso   1.000  C
  C28      1.0000 0.31643  0.03767  0.04421  Biso   1.000  C
  C29      1.0000 0.22311  0.92660  0.05111  Biso   1.000  C
  N15      1.0000 0.07841  0.94031  0.14387  Biso   1.000  N
  C30      1.0000 0.82313  0.17869  0.55615  Biso   1.000  C
  C31      1.0000 0.95778  0.13088  0.86781  Biso   1.000  C
  C32      1.0000 0.95785  0.13088  0.86781  Biso   1.000  C
  C33      1.0000 0.86162  0.27460  0.79231  Biso   1.000  C
  N16      1.0000 0.82332  0.17049  0.66392  Biso   1.000  N
  H27      1.0000 0.97841  0.35469  0.57581  Biso   1.000  H
  H28      1.0000 0.88092  0.35377  0.61626  Biso   1.000  H
  C34      1.0000 0.97382  0.36877  0.73870  Biso   1.000  C
  O7       1.0000 0.94383  0.00000  0.12502  Biso   1.000  O
  H29      1.0000 0.29664  0.87171  0.32987  Biso   1.000  H
  H30      1.0000 0.26124  0.84020  0.22010  Biso   1.000  H
  H31      1.0000 0.29664  0.87166  0.32987  Biso   1.000  H
  N17      1.0000 0.17675  0.82951  0.33613  Biso   1.000  N
  H32      1.0000 0.35342  0.05429  0.10447  Biso   1.000  H
  C35      1.0000 0.31643  0.96228  0.04421  Biso   1.000  C
  H33      1.0000 0.34369  0.05429  0.97922  Biso   1.000  H
  H34      1.0000 0.34375  0.05429  0.97922  Biso   1.000  H
  H35      1.0000 0.18883  0.93507  0.98499  Biso   1.000  H
  H36      1.0000 0.22983  0.87490  0.06042  Biso   1.000  H
  C36      1.0000 0.04221  0.86912  0.13216  Biso   1.000  C
  C37      1.0000 0.04221  0.86907  0.13216  Biso   1.000  C
  O8       1.0000 0.76789  0.15387  0.49188  Biso   1.000  O
  O9       1.0000 0.76795  0.15387  0.49188  Biso   1.000  O
  H37      1.0000 0.92073  0.15818  0.91556  Biso   1.000  H
  N18      1.0000 0.92158  0.05969  0.85610  Biso   1.000  N
  N19      1.0000 0.92165  0.05969  0.85610  Biso   1.000  N
  H38      1.0000 0.01693  0.12742  0.90135  Biso   1.000  H
  H39      1.0000 0.01693  0.12737  0.90135  Biso   1.000  H
  H40      1.0000 0.81403  0.30061  0.75451  Biso   1.000  H
  H41      1.0000 0.81403  0.30056  0.75451  Biso   1.000  H
  H42      1.0000 0.83638  0.25295  0.85538  Biso   1.000  H
  H43      1.0000 0.83645  0.25295  0.85538  Biso   1.000  H
  C38      1.0000 0.93286  0.32905  0.82930  Biso   1.000  C
  C39      1.0000 0.75561  0.13201  0.71776  Biso   1.000  C
  C40      1.0000 0.75561  0.13196  0.71776  Biso   1.000  C
  H44      1.0000 0.95749  0.41945  0.74151  Biso   1.000  H
  H45      1.0000 0.95756  0.41945  0.74151  Biso   1.000  H
  H46      1.0000 0.03830  0.36537  0.74520  Biso   1.000  H
  H47      1.0000 0.03837  0.36537  0.74520  Biso   1.000  H
  C41      1.0000 0.10674  0.78628  0.28060  Biso   1.000  C
  C42      1.0000 0.17693  0.82131  0.44382  Biso   1.000  C
  H48      1.0000 0.34369  0.94571  0.97922  Biso   1.000  H
  H49      1.0000 0.34375  0.94571  0.97922  Biso   1.000  H
  H50      1.0000 0.35342  0.94571  0.10447  Biso   1.000  H
  H51      1.0000 0.98313  0.87258  0.09862  Biso   1.000  H
  N20      1.0000 0.03581  0.82908  0.23318  Biso   1.000  N
  H52      1.0000 0.07933  0.84176  0.08441  Biso   1.000  H
  C43      1.0000 0.97483  0.00000  0.86436  Biso   1.000  C
  C44      1.0000 0.82617  0.04210  0.85497  Biso   1.000  C
  H53      1.0000 0.97939  0.30390  0.86990  Biso   1.000  H
  H54      1.0000 0.90600  0.36375  0.87688  Biso   1.000  H
  H55      1.0000 0.97945  0.30390  0.86990  Biso   1.000  H
  H56      1.0000 0.90607  0.36375  0.87688  Biso   1.000  H
  H57      1.0000 0.70342  0.12829  0.67010  Biso   1.000  H
  H58      1.0000 0.73882  0.15980  0.77987  Biso   1.000  H
  N21      1.0000 0.78051  0.06050  0.75291  Biso   1.000  N
  C45      1.0000 0.06053  0.74791  0.37706  Biso   1.000  C
  C46      1.0000 0.13837  0.72540  0.20767  Biso   1.000  C
  C47      1.0000 0.13844  0.72540  0.20767  Biso   1.000  C
  N22      1.0000 0.10673  0.77678  0.46957  Biso   1.000  N
  O10      1.0000 0.23217  0.84608  0.50809  Biso   1.000  O
  C48      1.0000 0.95588  0.81510  0.27659  Biso   1.000  C
  C49      1.0000 0.95595  0.81510  0.27659  Biso   1.000  C
  O11      1.0000 0.05623  0.00000  0.87495  Biso   1.000  O
  N23      1.0000 0.92158  0.94031  0.85610  Biso   1.000  N
  N24      1.0000 0.92165  0.94031  0.85610  Biso   1.000  N
  C50      1.0000 0.82617  0.95790  0.85497  Biso   1.000  C
  C51      1.0000 0.77695  0.07340  0.94886  Biso   1.000  C
  C52      1.0000 0.75207  0.00000  0.69810  Biso   1.000  C
  C53      1.0000 0.75214  0.00000  0.69810  Biso   1.000  C
  N25      1.0000 0.96937  0.77122  0.36333  Biso   1.000  N
  N26      1.0000 0.96937  0.77117  0.36333  Biso   1.000  N
  N27      1.0000 0.96944  0.77122  0.36333  Biso   1.000  N
  N28      1.0000 0.96944  0.77117  0.36333  Biso   1.000  N
  C54      1.0000 0.05903  0.66372  0.36847  Biso   1.000  C
  C55      1.0000 0.05903  0.66366  0.36847  Biso   1.000  C
  H59      1.0000 0.18602  0.69939  0.24546  Biso   1.000  H
  H60      1.0000 0.16361  0.74699  0.14460  Biso   1.000  H
  C56      1.0000 0.06720  0.67089  0.17067  Biso   1.000  C
  C57      1.0000 0.10267  0.74521  0.57557  Biso   1.000  C
  O12      1.0000 0.88278  0.83831  0.24233  Biso   1.000  O
  O13      1.0000 0.88284  0.83831  0.24233  Biso   1.000  O
  C58      1.0000 0.95778  0.86912  0.86781  Biso   1.000  C
  C59      1.0000 0.95778  0.86907  0.86781  Biso   1.000  C
  C60      1.0000 0.95785  0.86912  0.86781  Biso   1.000  C
  C61      1.0000 0.95785  0.86907  0.86781  Biso   1.000  C
  N29      1.0000 0.78051  0.93950  0.75291  Biso   1.000  N
  C62      1.0000 0.77695  0.92660  0.94886  Biso   1.000  C
  H61      1.0000 0.77023  0.12510  0.93955  Biso   1.000  H
  C63      1.0000 0.68362  0.03772  0.95576  Biso   1.000  C
  C64      1.0000 0.68362  0.03767  0.95576  Biso   1.000  C
  H62      1.0000 0.81123  0.06493  0.01498  Biso   1.000  H
  H63      1.0000 0.81123  0.06487  0.01498  Biso   1.000  H
  O14      1.0000 0.70421  0.00000  0.61818  Biso   1.000  O
  C65      1.0000 0.89739  0.74521  0.42440  Biso   1.000  C
  C66      1.0000 0.89746  0.74521  0.42440  Biso   1.000  C
  H64      1.0000 0.02158  0.64531  0.42416  Biso   1.000  H
  H65      1.0000 0.11914  0.64623  0.38372  Biso   1.000  H
  H66      1.0000 0.11914  0.64618  0.38372  Biso   1.000  H
  C67      1.0000 0.02623  0.63117  0.26127  Biso   1.000  C
  H67      1.0000 0.02165  0.64531  0.42416  Biso   1.000  H
  H68      1.0000 0.09399  0.63619  0.12309  Biso   1.000  H
  H69      1.0000 0.02061  0.69610  0.13007  Biso   1.000  H
  H70      1.0000 0.09406  0.63619  0.12309  Biso   1.000  H
  H71      1.0000 0.09720  0.69329  0.56835  Biso   1.000  H
  N30      1.0000 0.03062  0.77122  0.63672  Biso   1.000  N
  N31      1.0000 0.03062  0.77117  0.63672  Biso   1.000  N
  H72      1.0000 0.15836  0.75519  0.61481  Biso   1.000  H
  H73      1.0000 0.09727  0.69329  0.56835  Biso   1.000  H
  N32      1.0000 0.96418  0.82908  0.76679  Biso   1.000  N
  H74      1.0000 0.92073  0.84176  0.91556  Biso   1.000  H
  N33      1.0000 0.96425  0.82908  0.76679  Biso   1.000  N
  H75      1.0000 0.01693  0.87258  0.90135  Biso   1.000  H
  H76      1.0000 0.77023  0.87490  0.93955  Biso   1.000  H
  C68      1.0000 0.68362  0.96228  0.95576  Biso   1.000  C
  H77      1.0000 0.81123  0.93507  0.01498  Biso   1.000  H
  C69      1.0000 0.75561  0.86799  0.71776  Biso   1.000  C
  H78      1.0000 0.64664  0.05429  0.89550  Biso   1.000  H
  H79      1.0000 0.65631  0.05429  0.02075  Biso   1.000  H
  H80      1.0000 0.84170  0.75519  0.38516  Biso   1.000  H
  H81      1.0000 0.90279  0.69329  0.43162  Biso   1.000  H
  N34      1.0000 0.89333  0.77678  0.53040  Biso   1.000  N
  H82      1.0000 0.90286  0.69329  0.43162  Biso   1.000  H
  H83      1.0000 0.96169  0.63463  0.25477  Biso   1.000  H
  H84      1.0000 0.96169  0.63457  0.25477  Biso   1.000  H
  H85      1.0000 0.96176  0.63463  0.25477  Biso   1.000  H
  H86      1.0000 0.96176  0.63457  0.25477  Biso   1.000  H
  H87      1.0000 0.04250  0.58050  0.25846  Biso   1.000  H
  C70      1.0000 0.93953  0.74791  0.62292  Biso   1.000  C
  C71      1.0000 0.04411  0.81510  0.72338  Biso   1.000  C
  C72      1.0000 0.89332  0.78628  0.71937  Biso   1.000  C
  H88      1.0000 0.64664  0.94571  0.89550  Biso   1.000  H
  H89      1.0000 0.65631  0.94571  0.02075  Biso   1.000  H
  H90      1.0000 0.70342  0.87171  0.67010  Biso   1.000  H
  H91      1.0000 0.73882  0.84020  0.77987  Biso   1.000  H
  N35      1.0000 0.82332  0.82951  0.66392  Biso   1.000  N
  H92      1.0000 0.70342  0.87166  0.67010  Biso   1.000  H
  C73      1.0000 0.82313  0.82131  0.55615  Biso   1.000  C
  C74      1.0000 0.94103  0.66372  0.63150  Biso   1.000  C
  C75      1.0000 0.94103  0.66366  0.63150  Biso   1.000  C
  O15      1.0000 0.11722  0.83831  0.75772  Biso   1.000  O
  C76      1.0000 0.86162  0.72540  0.79231  Biso   1.000  C
  O16      1.0000 0.76789  0.84608  0.49188  Biso   1.000  O
  O17      1.0000 0.76795  0.84608  0.49188  Biso   1.000  O
  H93      1.0000 0.97841  0.64531  0.57581  Biso   1.000  H
  H94      1.0000 0.88092  0.64623  0.61626  Biso   1.000  H
  H95      1.0000 0.88092  0.64618  0.61626  Biso   1.000  H
  C77      1.0000 0.97382  0.63117  0.73870  Biso   1.000  C
  H96      1.0000 0.81403  0.69939  0.75451  Biso   1.000  H
  H97      1.0000 0.83638  0.74699  0.85538  Biso   1.000  H
  H98      1.0000 0.83645  0.74699  0.85538  Biso   1.000  H
  C78      1.0000 0.93286  0.67089  0.82930  Biso   1.000  C
  H99      1.0000 0.95749  0.58050  0.74151  Biso   1.000  H
  H100     1.0000 0.95756  0.58050  0.74151  Biso   1.000  H
  H101     1.0000 0.03830  0.63463  0.74520  Biso   1.000  H
  H102     1.0000 0.03830  0.63457  0.74520  Biso   1.000  H
  H103     1.0000 0.03837  0.63463  0.74520  Biso   1.000  H
  H104     1.0000 0.03837  0.63457  0.74520  Biso   1.000  H
  H105     1.0000 0.90600  0.63619  0.87688  Biso   1.000  H
  H106     1.0000 0.97939  0.69610  0.86990  Biso   1.000  H
  H107     1.0000 0.90607  0.63619  0.87688  Biso   1.000  H
  H108     1.0000 0.97945  0.69610  0.86990  Biso   1.000  H
  O18      1.0000 0.26789  0.34611  0.49188  Biso   1.000  O
  C79      1.0000 0.32313  0.32128  0.55615  Biso   1.000  C
  N36      1.0000 0.39333  0.27681  0.53040  Biso   1.000  N
  N37      1.0000 0.32332  0.32948  0.66392  Biso   1.000  N
  C80      1.0000 0.39739  0.24518  0.42440  Biso   1.000  C
  C81      1.0000 0.43953  0.24788  0.62292  Biso   1.000  C
  C82      1.0000 0.39332  0.28631  0.71937  Biso   1.000  C
  C83      1.0000 0.25561  0.36802  0.71776  Biso   1.000  C
  N38      1.0000 0.46944  0.27120  0.36333  Biso   1.000  N
  H109     1.0000 0.34170  0.25522  0.38516  Biso   1.000  H
  H110     1.0000 0.40279  0.19332  0.43162  Biso   1.000  H
  C84      1.0000 0.44103  0.16369  0.63150  Biso   1.000  C
  N39      1.0000 0.53062  0.27120  0.63672  Biso   1.000  N
  C85      1.0000 0.36162  0.22538  0.79231  Biso   1.000  C
  N40      1.0000 0.46425  0.32911  0.76679  Biso   1.000  N
  H111     1.0000 0.20342  0.37169  0.67010  Biso   1.000  H
  H112     1.0000 0.23882  0.34017  0.77987  Biso   1.000  H
  N41      1.0000 0.28051  0.43947  0.75291  Biso   1.000  N
  C86      1.0000 0.45595  0.31507  0.27659  Biso   1.000  C
  C87      1.0000 0.56053  0.24788  0.37706  Biso   1.000  C
  H113     1.0000 0.47841  0.14529  0.57581  Biso   1.000  H
  H114     1.0000 0.38092  0.14620  0.61626  Biso   1.000  H
  C88      1.0000 0.47382  0.13120  0.73870  Biso   1.000  C
  C89      1.0000 0.60260  0.24518  0.57557  Biso   1.000  C
  C90      1.0000 0.54411  0.31507  0.72338  Biso   1.000  C
  H115     1.0000 0.31403  0.19942  0.75451  Biso   1.000  H
  H116     1.0000 0.33645  0.24702  0.85538  Biso   1.000  H
  C91      1.0000 0.43279  0.17092  0.82930  Biso   1.000  C
  C92      1.0000 0.45785  0.36910  0.86781  Biso   1.000  C
  C93      1.0000 0.32610  0.45788  0.85497  Biso   1.000  C
  C94      1.0000 0.25214  0.49997  0.69810  Biso   1.000  C
  O19      1.0000 0.38284  0.33828  0.24233  Biso   1.000  O
  N42      1.0000 0.53581  0.32911  0.23318  Biso   1.000  N
  C95      1.0000 0.60674  0.28631  0.28060  Biso   1.000  C
  C96      1.0000 0.55903  0.16369  0.36847  Biso   1.000  C
  N43      1.0000 0.60673  0.27681  0.46957  Biso   1.000  N
  H117     1.0000 0.53830  0.13460  0.74520  Biso   1.000  H
  H118     1.0000 0.45749  0.08052  0.74151  Biso   1.000  H
  H119     1.0000 0.65829  0.25522  0.61481  Biso   1.000  H
  H120     1.0000 0.59720  0.19332  0.56835  Biso   1.000  H
  O20      1.0000 0.61722  0.33828  0.75772  Biso   1.000  O
  H121     1.0000 0.40600  0.13622  0.87688  Biso   1.000  H
  H122     1.0000 0.47945  0.19607  0.86990  Biso   1.000  H
  H123     1.0000 0.51693  0.37261  0.90135  Biso   1.000  H
  H124     1.0000 0.42073  0.34179  0.91556  Biso   1.000  H
  N44      1.0000 0.42165  0.44028  0.85610  Biso   1.000  N
  C97      1.0000 0.32610  0.54207  0.85497  Biso   1.000  C
  C98      1.0000 0.27695  0.42657  0.94886  Biso   1.000  C
  N45      1.0000 0.28051  0.56047  0.75291  Biso   1.000  N
  O21      1.0000 0.20421  0.49997  0.61818  Biso   1.000  O
  C99      1.0000 0.54221  0.36910  0.13216  Biso   1.000  C
  C100     1.0000 0.63844  0.22538  0.20767  Biso   1.000  C
  N46      1.0000 0.67675  0.32948  0.33613  Biso   1.000  N
  H125     1.0000 0.52165  0.14529  0.42416  Biso   1.000  H
  H126     1.0000 0.61914  0.14620  0.38372  Biso   1.000  H
  C101     1.0000 0.52623  0.13120  0.26127  Biso   1.000  C
  C102     1.0000 0.67693  0.32128  0.44382  Biso   1.000  C
  C103     1.0000 0.47483  0.49997  0.86436  Biso   1.000  C
  N47      1.0000 0.42165  0.55972  0.85610  Biso   1.000  N
  C104     1.0000 0.27695  0.57337  0.94886  Biso   1.000  C
  H127     1.0000 0.27023  0.37487  0.93955  Biso   1.000  H
  C105     1.0000 0.18362  0.46230  0.95576  Biso   1.000  C
  H128     1.0000 0.31123  0.43510  0.01498  Biso   1.000  H
  C106     1.0000 0.25561  0.63198  0.71776  Biso   1.000  C
  H129     1.0000 0.48313  0.37261  0.09862  Biso   1.000  H
  H130     1.0000 0.57933  0.34179  0.08441  Biso   1.000  H
  N48      1.0000 0.57841  0.44028  0.14387  Biso   1.000  N
  H131     1.0000 0.68602  0.19942  0.24546  Biso   1.000  H
  H132     1.0000 0.66361  0.24702  0.14460  Biso   1.000  H
  C107     1.0000 0.56720  0.17092  0.17067  Biso   1.000  C
  C108     1.0000 0.74445  0.36802  0.28221  Biso   1.000  C
  H133     1.0000 0.46169  0.13460  0.25477  Biso   1.000  H
  H134     1.0000 0.54250  0.08052  0.25846  Biso   1.000  H
  O22      1.0000 0.73211  0.34611  0.50809  Biso   1.000  O
  O23      1.0000 0.55623  0.49997  0.87495  Biso   1.000  O
  C109     1.0000 0.45785  0.63090  0.86781  Biso   1.000  C
  H135     1.0000 0.27023  0.62507  0.93955  Biso   1.000  H
  C110     1.0000 0.18362  0.53770  0.95576  Biso   1.000  C
  H136     1.0000 0.31123  0.56490  0.01498  Biso   1.000  H
  H137     1.0000 0.14664  0.44568  0.89550  Biso   1.000  H
  H138     1.0000 0.15631  0.44568  0.02075  Biso   1.000  H
  H139     1.0000 0.20342  0.62831  0.67010  Biso   1.000  H
  H140     1.0000 0.23882  0.65978  0.77987  Biso   1.000  H
  N49      1.0000 0.32332  0.67046  0.66392  Biso   1.000  N
  C111     1.0000 0.52523  0.49997  0.13561  Biso   1.000  C
  C112     1.0000 0.67389  0.45788  0.14500  Biso   1.000  C
  H141     1.0000 0.59399  0.13622  0.12309  Biso   1.000  H
  H142     1.0000 0.52061  0.19607  0.13007  Biso   1.000  H
  H143     1.0000 0.79664  0.37169  0.32987  Biso   1.000  H
  H144     1.0000 0.76124  0.34017  0.22010  Biso   1.000  H
  N50      1.0000 0.71955  0.43947  0.24706  Biso   1.000  N
  H145     1.0000 0.51693  0.62739  0.90135  Biso   1.000  H
  H146     1.0000 0.42073  0.65821  0.91556  Biso   1.000  H
  N51      1.0000 0.46425  0.67089  0.76679  Biso   1.000  N
  H147     1.0000 0.14664  0.55427  0.89550  Biso   1.000  H
  H148     1.0000 0.15631  0.55427  0.02075  Biso   1.000  H
  C113     1.0000 0.32313  0.67867  0.55615  Biso   1.000  C
  C114     1.0000 0.39332  0.71369  0.71937  Biso   1.000  C
  N52      1.0000 0.57841  0.55972  0.14387  Biso   1.000  N
  O24      1.0000 0.44383  0.49997  0.12502  Biso   1.000  O
  C115     1.0000 0.67389  0.54207  0.14500  Biso   1.000  C
  C116     1.0000 0.72311  0.42657  0.05111  Biso   1.000  C
  C117     1.0000 0.74792  0.49997  0.30187  Biso   1.000  C
  C118     1.0000 0.54411  0.68487  0.72338  Biso   1.000  C
  N53      1.0000 0.39333  0.72319  0.53040  Biso   1.000  N
  O25      1.0000 0.26789  0.65389  0.49188  Biso   1.000  O
  C119     1.0000 0.43953  0.75206  0.62292  Biso   1.000  C
  C120     1.0000 0.36162  0.77457  0.79231  Biso   1.000  C
  C121     1.0000 0.54221  0.63090  0.13216  Biso   1.000  C
  C122     1.0000 0.72311  0.57337  0.05111  Biso   1.000  C
  N54      1.0000 0.71955  0.56047  0.24706  Biso   1.000  N
  H149     1.0000 0.72983  0.37487  0.06042  Biso   1.000  H
  C123     1.0000 0.81643  0.46230  0.04421  Biso   1.000  C
  H150     1.0000 0.68883  0.43510  0.98499  Biso   1.000  H
  O26      1.0000 0.79585  0.49997  0.38179  Biso   1.000  O
  N55      1.0000 0.53062  0.72880  0.63672  Biso   1.000  N
  O27      1.0000 0.61722  0.66167  0.75772  Biso   1.000  O
  C124     1.0000 0.39739  0.75476  0.42440  Biso   1.000  C
  C125     1.0000 0.44103  0.83631  0.63150  Biso   1.000  C
  H151     1.0000 0.31403  0.80058  0.75451  Biso   1.000  H
  H152     1.0000 0.33645  0.75298  0.85538  Biso   1.000  H
  C126     1.0000 0.43279  0.82908  0.82930  Biso   1.000  C
  H153     1.0000 0.48313  0.62739  0.09862  Biso   1.000  H
  H154     1.0000 0.57933  0.65821  0.08441  Biso   1.000  H
  N56      1.0000 0.53581  0.67089  0.23318  Biso   1.000  N
  H155     1.0000 0.72983  0.62507  0.06042  Biso   1.000  H
  C127     1.0000 0.81643  0.53770  0.04421  Biso   1.000  C
  H156     1.0000 0.68883  0.56490  0.98499  Biso   1.000  H
  C128     1.0000 0.74445  0.63198  0.28221  Biso   1.000  C
  H157     1.0000 0.85342  0.44568  0.10447  Biso   1.000  H
  H158     1.0000 0.84375  0.44568  0.97922  Biso   1.000  H
  C129     1.0000 0.60260  0.75476  0.57557  Biso   1.000  C
  N57      1.0000 0.46944  0.72880  0.36333  Biso   1.000  N
  H159     1.0000 0.34170  0.74478  0.38516  Biso   1.000  H
  H160     1.0000 0.40279  0.80668  0.43162  Biso   1.000  H
  H161     1.0000 0.47841  0.85466  0.57581  Biso   1.000  H
  H162     1.0000 0.38092  0.85380  0.61626  Biso   1.000  H
  C130     1.0000 0.47382  0.86880  0.73870  Biso   1.000  C
  H163     1.0000 0.40600  0.86378  0.87688  Biso   1.000  H
  H164     1.0000 0.47945  0.80388  0.86990  Biso   1.000  H
  C131     1.0000 0.45595  0.68487  0.27659  Biso   1.000  C
  C132     1.0000 0.60674  0.71369  0.28060  Biso   1.000  C
  H165     1.0000 0.85342  0.55427  0.10447  Biso   1.000  H
  H166     1.0000 0.84375  0.55427  0.97922  Biso   1.000  H
  H167     1.0000 0.79664  0.62831  0.32987  Biso   1.000  H
  H168     1.0000 0.76124  0.65978  0.22010  Biso   1.000  H
  N58      1.0000 0.67675  0.67046  0.33613  Biso   1.000  N
  N59      1.0000 0.60673  0.72319  0.46957  Biso   1.000  N
  H169     1.0000 0.65829  0.74478  0.61481  Biso   1.000  H
  H170     1.0000 0.59720  0.80668  0.56835  Biso   1.000  H
  C133     1.0000 0.56053  0.75206  0.37706  Biso   1.000  C
  H171     1.0000 0.53830  0.86540  0.74520  Biso   1.000  H
  H172     1.0000 0.45749  0.91948  0.74151  Biso   1.000  H
  O28      1.0000 0.38284  0.66167  0.24233  Biso   1.000  O
  C134     1.0000 0.63844  0.77457  0.20767  Biso   1.000  C
  C135     1.0000 0.67693  0.67867  0.44382  Biso   1.000  C
  C136     1.0000 0.55903  0.83631  0.36847  Biso   1.000  C
  H173     1.0000 0.68602  0.80058  0.24546  Biso   1.000  H
  H174     1.0000 0.66361  0.75298  0.14460  Biso   1.000  H
  C137     1.0000 0.56720  0.82908  0.17067  Biso   1.000  C
  O29      1.0000 0.73211  0.65389  0.50809  Biso   1.000  O
  H175     1.0000 0.52165  0.85466  0.42416  Biso   1.000  H
  H176     1.0000 0.61914  0.85380  0.38372  Biso   1.000  H
  C138     1.0000 0.52623  0.86880  0.26127  Biso   1.000  C
  H177     1.0000 0.59399  0.86378  0.12309  Biso   1.000  H
  H178     1.0000 0.52061  0.80388  0.13007  Biso   1.000  H
  H179     1.0000 0.46169  0.86540  0.25477  Biso   1.000  H
  H180     1.0000 0.54250  0.91948  0.25846  Biso   1.000  H
