data_image0
_cell_length_a       14.172
_cell_length_b       10.707
_cell_length_c       21.267
_cell_angle_alpha    90
_cell_angle_beta     106.12
_cell_angle_gamma    90

_symmetry_space_group_name_H-M    "P 1"
_symmetry_int_tables_number       1

loop_
  _symmetry_equiv_pos_as_xyz
  'x, y, z'

loop_
  _atom_site_label
  _atom_site_occupancy
  _atom_site_fract_x
  _atom_site_fract_y
  _atom_site_fract_z
  _atom_site_thermal_displace_type
  _atom_site_B_iso_or_equiv
  _atom_site_type_symbol
  C1       1.0000 0.41827  0.14430  0.53919  Biso   1.000  C
  O1       1.0000 0.41388  0.06697  0.48172  Biso   1.000  O
  H1       1.0000 0.49472  0.16503  0.56449  Biso   1.000  H
  H2       1.0000 0.38498  0.09414  0.57208  Biso   1.000  H
  H3       1.0000 0.37899  0.23116  0.52382  Biso   1.000  H
  C2       1.0000 0.33571  0.10573  0.43062  Biso   1.000  C
  C3       1.0000 0.33283  0.02765  0.37052  Biso   1.000  C
  H4       1.0000 0.34407  0.20407  0.42020  Biso   1.000  H
  H5       1.0000 0.26729  0.09452  0.44389  Biso   1.000  H
  O2       1.0000 0.41722  0.06967  0.34800  Biso   1.000  O
  H6       1.0000 0.26516  0.04838  0.33259  Biso   1.000  H
  C4       1.0000 0.34099  0.89017  0.38011  Biso   1.000  C
  C5       1.0000 0.41943  0.01280  0.28809  Biso   1.000  C
  C6       1.0000 0.34770  0.82367  0.31849  Biso   1.000  C
  H7       1.0000 0.40438  0.86728  0.42098  Biso   1.000  H
  O3       1.0000 0.25220  0.84095  0.39142  Biso   1.000  O
  O4       1.0000 0.33118  0.03736  0.23871  Biso   1.000  O
  H8       1.0000 0.48099  0.05071  0.27292  Biso   1.000  H
  C7       1.0000 0.43141  0.87410  0.29568  Biso   1.000  C
  H9       1.0000 0.27918  0.83721  0.28021  Biso   1.000  H
  O5       1.0000 0.36268  0.69048  0.33210  Biso   1.000  O
  C8       1.0000 0.24989  0.81162  0.45529  Biso   1.000  C
  C9       1.0000 0.32856  0.13188  0.19059  Biso   1.000  C
  H10      1.0000 0.50082  0.85271  0.33170  Biso   1.000  H
  O6       1.0000 0.43348  0.82852  0.23308  Biso   1.000  O
  H11      1.0000 0.32449  0.80984  0.48769  Biso   1.000  H
  C10      1.0000 0.20343  0.68114  0.45319  Biso   1.000  C
  O7       1.0000 0.19470  0.89932  0.47781  Biso   1.000  O
  C11      1.0000 0.26531  0.23966  0.19999  Biso   1.000  C
  C12      1.0000 0.28702  0.06911  0.12559  Biso   1.000  C
  H12      1.0000 0.40287  0.16466  0.19451  Biso   1.000  H
  C13      1.0000 0.47500  0.70842  0.23181  Biso   1.000  C
  H13      1.0000 0.20314  0.65396  0.50262  Biso   1.000  H
  C14      1.0000 0.10003  0.68451  0.41012  Biso   1.000  C
  O8       1.0000 0.26161  0.59540  0.42940  Biso   1.000  O
  C15      1.0000 0.09630  0.91464  0.43469  Biso   1.000  C
  C16      1.0000 0.31070  0.31662  0.26068  Biso   1.000  C
  H14      1.0000 0.19534  0.20267  0.20361  Biso   1.000  H
  O9       1.0000 0.24662  0.32325  0.14532  Biso   1.000  O
  C17      1.0000 0.26117  0.16288  0.07102  Biso   1.000  C
  H15      1.0000 0.21994  0.02083  0.12701  Biso   1.000  H
  O10      1.0000 0.35533  0.97702  0.11409  Biso   1.000  O
  H16      1.0000 0.50569  0.70197  0.19030  Biso   1.000  H
  H17      1.0000 0.41830  0.63753  0.22730  Biso   1.000  H
  H18      1.0000 0.53310  0.69338  0.27708  Biso   1.000  H
  H19      1.0000 0.10239  0.69908  0.35990  Biso   1.000  H
  C18      1.0000 0.04221  0.79331  0.42901  Biso   1.000  C
  O11      1.0000 0.05350  0.56860  0.41310  Biso   1.000  O
  C19      1.0000 0.29271  0.48987  0.46900  Biso   1.000  C
  C20      1.0000 0.04921  0.01672  0.46479  Biso   1.000  C
  H20      1.0000 0.10051  0.94396  0.38638  Biso   1.000  H
  H21      1.0000 0.26740  0.40105  0.25990  Biso   1.000  H
  H22      1.0000 0.30960  0.26301  0.30410  Biso   1.000  H
  O12      1.0000 0.40691  0.34940  0.26431  Biso   1.000  O
  C21      1.0000 0.19827  0.26441  0.08619  Biso   1.000  C
  H23      1.0000 0.32877  0.20426  0.06559  Biso   1.000  H
  O13      1.0000 0.21022  0.10479  0.01038  Biso   1.000  O
  O14      1.0000 0.95221  0.80032  0.37762  Biso   1.000  O
  H24      1.0000 0.02642  0.77230  0.47512  Biso   1.000  H
  H25      1.0000 0.37248  0.49024  0.48720  Biso   1.000  H
  H26      1.0000 0.26901  0.40562  0.44022  Biso   1.000  H
  H27      1.0000 0.26101  0.49201  0.51011  Biso   1.000  H
  O15      1.0000 0.09263  0.13571  0.46332  Biso   1.000  O
  H28      1.0000 0.97141  0.02214  0.43860  Biso   1.000  H
  H29      1.0000 0.05489  0.99215  0.51550  Biso   1.000  H
  C22      1.0000 0.45620  0.41468  0.32299  Biso   1.000  C
  H30      1.0000 0.18303  0.33315  0.04689  Biso   1.000  H
  O16      1.0000 0.10883  0.20996  0.08982  Biso   1.000  O
  C23      1.0000 0.25977  0.10246  0.96300  Biso   1.000  C
  C24      1.0000 0.86150  0.79088  0.39259  Biso   1.000  C
  C25      1.0000 0.05950  0.20071  0.40429  Biso   1.000  C
  H31      1.0000 0.41900  0.50313  0.32500  Biso   1.000  H
  H32      1.0000 0.53207  0.43299  0.32338  Biso   1.000  H
  H33      1.0000 0.45509  0.35808  0.36538  Biso   1.000  H
  C26      1.0000 0.01823  0.27150  0.05780  Biso   1.000  C
  H34      1.0000 0.26602  0.19725  0.94582  Biso   1.000  H
  H35      1.0000 0.21951  0.04492  0.92208  Biso   1.000  H
  H36      1.0000 0.33292  0.06370  0.98360  Biso   1.000  H
  H37      1.0000 0.87419  0.75240  0.44169  Biso   1.000  H
  C27      1.0000 0.79602  0.70216  0.34399  Biso   1.000  C
  O17      1.0000 0.81687  0.90819  0.39049  Biso   1.000  O
  H38      1.0000 0.09567  0.29140  0.40879  Biso   1.000  H
  H39      1.0000 0.07672  0.14738  0.36518  Biso   1.000  H
  H40      1.0000 0.98031  0.21397  0.39289  Biso   1.000  H
  H41      1.0000 0.03144  0.35397  0.03142  Biso   1.000  H
  C28      1.0000 0.95790  0.17475  0.01072  Biso   1.000  C
  C29      1.0000 0.96532  0.30644  0.10949  Biso   1.000  C
  H42      1.0000 0.72769  0.68927  0.35730  Biso   1.000  H
  C30      1.0000 0.77272  0.75717  0.27689  Biso   1.000  C
  O18      1.0000 0.84519  0.58522  0.34888  Biso   1.000  O
  C31      1.0000 0.79732  0.97086  0.32661  Biso   1.000  C
  C32      1.0000 0.85468  0.21771  0.98179  Biso   1.000  C
  H43      1.0000 0.95629  0.08863  0.03769  Biso   1.000  H
  O19      1.0000 0.00331  0.14934  0.96001  Biso   1.000  O
  C33      1.0000 0.01448  0.41281  0.15261  Biso   1.000  C
  H44      1.0000 0.95999  0.22509  0.13920  Biso   1.000  H
  O20      1.0000 0.86827  0.35024  0.07489  Biso   1.000  O
  C34      1.0000 0.73002  0.88578  0.27449  Biso   1.000  C
  H45      1.0000 0.84052  0.76315  0.26230  Biso   1.000  H
  O21      1.0000 0.70542  0.67582  0.23171  Biso   1.000  O
  C35      1.0000 0.78750  0.47931  0.34879  Biso   1.000  C
  H46      1.0000 0.86683  0.98179  0.31462  Biso   1.000  H
  C36      1.0000 0.75937  0.09564  0.33479  Biso   1.000  C
  H47      1.0000 0.85487  0.29653  0.94939  Biso   1.000  H
  O22      1.0000 0.79610  0.12086  0.94552  Biso   1.000  O
  C37      1.0000 0.80813  0.25787  0.03402  Biso   1.000  C
  H48      1.0000 0.09198  0.39189  0.17420  Biso   1.000  H
  H49      1.0000 0.00893  0.49809  0.12388  Biso   1.000  H
  O23      1.0000 0.96799  0.42850  0.20141  Biso   1.000  O
  O24      1.0000 0.72080  0.93556  0.21071  Biso   1.000  O
  H50      1.0000 0.65778  0.88036  0.28300  Biso   1.000  H
  H51      1.0000 0.83103  0.39572  0.34791  Biso   1.000  H
  H52      1.0000 0.72429  0.48071  0.30562  Biso   1.000  H
  H53      1.0000 0.76219  0.47885  0.39269  Biso   1.000  H
  H54      1.0000 0.81121  0.14374  0.37502  Biso   1.000  H
  H55      1.0000 0.75191  0.15000  0.29030  Biso   1.000  H
  O25      1.0000 0.66718  0.08686  0.34791  Biso   1.000  O
  C38      1.0000 0.76287  0.13608  0.87729  Biso   1.000  C
  H56      1.0000 0.73603  0.29766  0.01101  Biso   1.000  H
  O26      1.0000 0.79738  0.15336  0.07122  Biso   1.000  O
  C39      1.0000 0.00708  0.52937  0.24409  Biso   1.000  C
  C40      1.0000 0.99848  0.34024  0.25310  Biso   1.000  C
  C41      1.0000 0.63143  0.99187  0.17640  Biso   1.000  C
  C42      1.0000 0.62839  0.20454  0.35539  Biso   1.000  C
  H57      1.0000 0.72432  0.05202  0.85522  Biso   1.000  H
  H58      1.0000 0.82561  0.15196  0.85801  Biso   1.000  H
  H59      1.0000 0.71320  0.21565  0.86579  Biso   1.000  H
  C43      1.0000 0.70622  0.13029  0.08629  Biso   1.000  C
  H60      1.0000 0.06801  0.49603  0.28398  Biso   1.000  H
  H61      1.0000 0.03402  0.60204  0.21712  Biso   1.000  H
  H62      1.0000 0.94990  0.56804  0.26401  Biso   1.000  H
  H63      1.0000 0.03498  0.26198  0.23670  Biso   1.000  H
  H64      1.0000 0.04999  0.38498  0.29509  Biso   1.000  H
  H65      1.0000 0.93463  0.30597  0.26700  Biso   1.000  H
  C44      1.0000 0.60709  0.95003  0.10528  Biso   1.000  C
  O27      1.0000 0.63677  0.12226  0.17939  Biso   1.000  O
  H66      1.0000 0.57350  0.96049  0.19740  Biso   1.000  H
  H67      1.0000 0.56182  0.19296  0.37091  Biso   1.000  H
  H68      1.0000 0.61092  0.25432  0.30890  Biso   1.000  H
  H69      1.0000 0.68218  0.25778  0.39220  Biso   1.000  H
  C45      1.0000 0.68861  0.99449  0.07689  Biso   1.000  C
  H70      1.0000 0.64752  0.18082  0.05159  Biso   1.000  H
  C46      1.0000 0.71406  0.17717  0.15609  Biso   1.000  C
  H71      1.0000 0.53794  0.99234  0.07802  Biso   1.000  H
  O28      1.0000 0.59703  0.81816  0.10332  Biso   1.000  O
  H72      1.0000 0.75589  0.94583  0.10220  Biso   1.000  H
  O29      1.0000 0.66539  0.96330  0.00861  Biso   1.000  O
  H73      1.0000 0.78459  0.14691  0.18820  Biso   1.000  H
  C47      1.0000 0.70713  0.31512  0.16181  Biso   1.000  C
  C48      1.0000 0.51688  0.77370  0.05271  Biso   1.000  C
  H74      1.0000 0.70264  0.33819  0.21081  Biso   1.000  H
  H75      1.0000 0.77372  0.35771  0.15550  Biso   1.000  H
  O30      1.0000 0.62337  0.36724  0.11439  Biso   1.000  O
  H76      1.0000 0.50868  0.67348  0.05859  Biso   1.000  H
  H77      1.0000 0.53023  0.79191  0.00548  Biso   1.000  H
  H78      1.0000 0.45003  0.82133  0.05501  Biso   1.000  H
  C49      1.0000 0.54210  0.39199  0.13778  Biso   1.000  C
  H79      1.0000 0.47480  0.37004  0.09990  Biso   1.000  H
  H80      1.0000 0.54190  0.49052  0.15070  Biso   1.000  H
  H81      1.0000 0.54630  0.33492  0.18090  Biso   1.000  H
  C50      1.0000 0.65900  0.39021  0.61990  Biso   1.000  C
  C51      1.0000 0.66716  0.52760  0.62949  Biso   1.000  C
  C52      1.0000 0.65229  0.32371  0.68152  Biso   1.000  C
  H82      1.0000 0.59559  0.36733  0.57898  Biso   1.000  H
  O31      1.0000 0.74778  0.34090  0.60859  Biso   1.000  O
  C53      1.0000 0.66427  0.60568  0.56938  Biso   1.000  C
  H83      1.0000 0.73483  0.54843  0.66742  Biso   1.000  H
  O32      1.0000 0.58284  0.56972  0.65200  Biso   1.000  O
  C54      1.0000 0.56856  0.37405  0.70428  Biso   1.000  C
  H84      1.0000 0.72080  0.33716  0.71979  Biso   1.000  H
  O33      1.0000 0.63730  0.19053  0.66791  Biso   1.000  O
  C55      1.0000 0.75010  0.31157  0.54472  Biso   1.000  C
  O34      1.0000 0.58611  0.56701  0.51829  Biso   1.000  O
  H85      1.0000 0.65592  0.70412  0.57981  Biso   1.000  H
  H86      1.0000 0.73270  0.59447  0.55612  Biso   1.000  H
  C56      1.0000 0.58063  0.51284  0.71191  Biso   1.000  C
  H87      1.0000 0.49917  0.35267  0.66830  Biso   1.000  H
  O35      1.0000 0.56649  0.32848  0.76688  Biso   1.000  O
  H88      1.0000 0.67549  0.30980  0.51231  Biso   1.000  H
  C57      1.0000 0.79663  0.18110  0.54682  Biso   1.000  C
  O36      1.0000 0.80528  0.39927  0.52220  Biso   1.000  O
  C58      1.0000 0.58171  0.64434  0.46082  Biso   1.000  C
  H89      1.0000 0.51900  0.55067  0.72709  Biso   1.000  H
  O37      1.0000 0.66881  0.53741  0.76130  Biso   1.000  O
  C59      1.0000 0.52498  0.20837  0.76820  Biso   1.000  C
  H90      1.0000 0.79692  0.15401  0.49739  Biso   1.000  H
  C60      1.0000 0.90003  0.18446  0.58989  Biso   1.000  C
  O38      1.0000 0.73838  0.09536  0.57061  Biso   1.000  O
  C61      1.0000 0.90369  0.41459  0.56532  Biso   1.000  C
  H91      1.0000 0.50534  0.66499  0.43552  Biso   1.000  H
  H92      1.0000 0.61498  0.59410  0.42788  Biso   1.000  H
  H93      1.0000 0.62100  0.73120  0.47619  Biso   1.000  H
  C62      1.0000 0.67142  0.63192  0.80941  Biso   1.000  C
  H94      1.0000 0.49429  0.20202  0.80971  Biso   1.000  H
  H95      1.0000 0.58169  0.13748  0.77270  Biso   1.000  H
  H96      1.0000 0.46687  0.19342  0.72288  Biso   1.000  H
  H97      1.0000 0.89760  0.19912  0.64011  Biso   1.000  H
  C63      1.0000 0.95778  0.29327  0.57100  Biso   1.000  C
  O39      1.0000 0.94648  0.06865  0.58691  Biso   1.000  O
  C64      1.0000 0.70728  0.98991  0.53101  Biso   1.000  C
  H98      1.0000 0.89953  0.44401  0.61358  Biso   1.000  H
  C65      1.0000 0.95077  0.51667  0.53522  Biso   1.000  C
  C66      1.0000 0.71297  0.56907  0.87441  Biso   1.000  C
  H99      1.0000 0.59711  0.66471  0.80550  Biso   1.000  H
  C67      1.0000 0.73468  0.73970  0.80002  Biso   1.000  C
  H100     1.0000 0.97357  0.27235  0.52489  Biso   1.000  H
  O40      1.0000 0.04778  0.30027  0.62239  Biso   1.000  O
  H101     1.0000 0.62750  0.99019  0.51280  Biso   1.000  H
  H102     1.0000 0.73098  0.90558  0.55979  Biso   1.000  H
  H103     1.0000 0.73897  0.99197  0.48990  Biso   1.000  H
  H104     1.0000 0.94510  0.49220  0.48451  Biso   1.000  H
  O41      1.0000 0.90743  0.63566  0.53669  Biso   1.000  O
  H105     1.0000 0.02858  0.52209  0.56141  Biso   1.000  H
  C68      1.0000 0.73881  0.66293  0.92899  Biso   1.000  C
  H106     1.0000 0.78012  0.52078  0.87299  Biso   1.000  H
  O42      1.0000 0.64473  0.47698  0.88592  Biso   1.000  O
  H107     1.0000 0.80472  0.70272  0.79639  Biso   1.000  H
  C69      1.0000 0.68928  0.81657  0.73932  Biso   1.000  C
  O43      1.0000 0.75337  0.82320  0.85469  Biso   1.000  O
  C70      1.0000 0.13849  0.29093  0.60742  Biso   1.000  C
  C71      1.0000 0.94049  0.70066  0.59572  Biso   1.000  C
  C72      1.0000 0.80171  0.76436  0.91382  Biso   1.000  C
  H108     1.0000 0.67122  0.70431  0.93442  Biso   1.000  H
  O44      1.0000 0.78982  0.60484  0.98958  Biso   1.000  O
  H109     1.0000 0.73258  0.90100  0.74011  Biso   1.000  H
  H110     1.0000 0.69039  0.76296  0.69591  Biso   1.000  H
  O45      1.0000 0.59308  0.84944  0.73570  Biso   1.000  O
  H111     1.0000 0.12580  0.25236  0.55832  Biso   1.000  H
  C73      1.0000 0.20404  0.20220  0.65602  Biso   1.000  C
  O46      1.0000 0.18311  0.40824  0.60952  Biso   1.000  O
  H112     1.0000 0.90432  0.79144  0.59121  Biso   1.000  H
  H113     1.0000 0.92331  0.64743  0.63478  Biso   1.000  H
  H114     1.0000 0.01968  0.71402  0.60712  Biso   1.000  H
  H115     1.0000 0.81703  0.83310  0.95312  Biso   1.000  H
  O47      1.0000 0.89123  0.71000  0.91019  Biso   1.000  O
  C74      1.0000 0.74021  0.60250  0.03701  Biso   1.000  C
  C75      1.0000 0.54379  0.91473  0.67702  Biso   1.000  C
  H116     1.0000 0.27230  0.18932  0.64271  Biso   1.000  H
  C76      1.0000 0.22734  0.25721  0.72312  Biso   1.000  C
  O48      1.0000 0.15479  0.08518  0.65112  Biso   1.000  O
  C77      1.0000 0.20267  0.47091  0.67339  Biso   1.000  C
  C78      1.0000 0.98183  0.77146  0.94220  Biso   1.000  C
  H117     1.0000 0.73397  0.69730  0.05419  Biso   1.000  H
  H118     1.0000 0.78046  0.54488  0.07788  Biso   1.000  H
  H119     1.0000 0.66714  0.56374  0.01641  Biso   1.000  H
  H120     1.0000 0.46790  0.93303  0.67658  Biso   1.000  H
  H121     1.0000 0.54488  0.85813  0.63458  Biso   1.000  H
  H122     1.0000 0.58099  0.00308  0.67501  Biso   1.000  H
  H123     1.0000 0.15947  0.26310  0.73771  Biso   1.000  H
  C79      1.0000 0.27004  0.38582  0.72552  Biso   1.000  C
  O49      1.0000 0.29457  0.17577  0.76830  Biso   1.000  O
  C80      1.0000 0.21248  0.97927  0.65122  Biso   1.000  C
  H124     1.0000 0.13322  0.48183  0.68539  Biso   1.000  H
  C81      1.0000 0.24061  0.59559  0.66522  Biso   1.000  C
  H125     1.0000 0.96862  0.85402  0.96859  Biso   1.000  H
  C82      1.0000 0.04209  0.67470  0.98929  Biso   1.000  C
  C83      1.0000 0.03474  0.80639  0.89052  Biso   1.000  C
  H126     1.0000 0.34221  0.38041  0.71700  Biso   1.000  H
  O50      1.0000 0.27919  0.43560  0.78930  Biso   1.000  O
  H127     1.0000 0.16903  0.89568  0.65210  Biso   1.000  H
  H128     1.0000 0.27570  0.98067  0.69439  Biso   1.000  H
  H129     1.0000 0.23780  0.97880  0.60732  Biso   1.000  H
  H130     1.0000 0.18878  0.64369  0.62499  Biso   1.000  H
  H131     1.0000 0.24807  0.65004  0.70971  Biso   1.000  H
  O51      1.0000 0.33281  0.58691  0.65210  Biso   1.000  O
  O52      1.0000 0.99668  0.64929  0.04000  Biso   1.000  O
  H132     1.0000 0.04370  0.58859  0.96232  Biso   1.000  H
  C84      1.0000 0.14531  0.71766  0.01822  Biso   1.000  C
  C85      1.0000 0.98551  0.91277  0.84740  Biso   1.000  C
  H133     1.0000 0.04000  0.72513  0.86081  Biso   1.000  H
  O53      1.0000 0.13171  0.85019  0.92512  Biso   1.000  O
  C86      1.0000 0.36863  0.49192  0.82361  Biso   1.000  C
  C87      1.0000 0.37160  0.70449  0.64461  Biso   1.000  C
  C88      1.0000 0.19193  0.75792  0.96599  Biso   1.000  C
  H134     1.0000 0.14512  0.79649  0.05062  Biso   1.000  H
  O54      1.0000 0.20389  0.62090  0.05448  Biso   1.000  O
  H135     1.0000 0.90800  0.89194  0.82581  Biso   1.000  H
  H136     1.0000 0.99111  0.99813  0.87608  Biso   1.000  H
  O55      1.0000 0.03200  0.92846  0.79860  Biso   1.000  O
  H137     1.0000 0.42649  0.46054  0.80261  Biso   1.000  H
  C89      1.0000 0.39288  0.44999  0.89468  Biso   1.000  C
  O56      1.0000 0.36322  0.62230  0.82062  Biso   1.000  O
  H138     1.0000 0.43817  0.69300  0.62910  Biso   1.000  H
  H139     1.0000 0.38914  0.75427  0.69111  Biso   1.000  H
  H140     1.0000 0.31781  0.75782  0.60781  Biso   1.000  H
  H141     1.0000 0.26403  0.79770  0.98900  Biso   1.000  H
  O57      1.0000 0.20260  0.65340  0.92879  Biso   1.000  O
  C90      1.0000 0.23711  0.63613  0.12272  Biso   1.000  C
  C91      1.0000 0.99291  0.02942  0.75592  Biso   1.000  C
  C92      1.0000 0.00151  0.84020  0.74691  Biso   1.000  C
  H142     1.0000 0.46212  0.49229  0.92199  Biso   1.000  H
  C93      1.0000 0.31137  0.49454  0.92311  Biso   1.000  C
  O58      1.0000 0.40296  0.31820  0.89668  Biso   1.000  O
  C94      1.0000 0.28593  0.67722  0.84392  Biso   1.000  C
  C95      1.0000 0.29384  0.63034  0.91372  Biso   1.000  C
  H143     1.0000 0.27567  0.55198  0.14479  Biso   1.000  H
  H144     1.0000 0.17438  0.65200  0.14200  Biso   1.000  H
  H145     1.0000 0.28678  0.71570  0.13422  Biso   1.000  H
  H146     1.0000 0.93196  0.99598  0.71598  Biso   1.000  H
  H147     1.0000 0.96597  0.10199  0.78289  Biso   1.000  H
  H148     1.0000 0.05009  0.06799  0.73600  Biso   1.000  H
  H149     1.0000 0.96501  0.76202  0.76331  Biso   1.000  H
  H150     1.0000 0.95000  0.88503  0.70492  Biso   1.000  H
  H151     1.0000 0.06543  0.80601  0.73301  Biso   1.000  H
  H152     1.0000 0.24410  0.44578  0.89781  Biso   1.000  H
  O59      1.0000 0.33460  0.46334  0.99139  Biso   1.000  O
  C96      1.0000 0.48311  0.27375  0.94729  Biso   1.000  C
  H153     1.0000 0.21539  0.64687  0.81181  Biso   1.000  H
  C97      1.0000 0.29293  0.81507  0.83819  Biso   1.000  C
  H154     1.0000 0.35254  0.68077  0.94842  Biso   1.000  H
  H155     1.0000 0.49131  0.17353  0.94142  Biso   1.000  H
  H156     1.0000 0.46981  0.29187  0.99448  Biso   1.000  H
  H157     1.0000 0.55003  0.32129  0.94499  Biso   1.000  H
  H158     1.0000 0.29742  0.83824  0.78920  Biso   1.000  H
  H159     1.0000 0.22634  0.85766  0.84451  Biso   1.000  H
  O60      1.0000 0.37662  0.86719  0.88562  Biso   1.000  O
  C98      1.0000 0.45787  0.89203  0.86218  Biso   1.000  C
  H160     1.0000 0.52519  0.86999  0.90011  Biso   1.000  H
  H161     1.0000 0.45808  0.99047  0.84930  Biso   1.000  H
  H162     1.0000 0.45369  0.83487  0.81911  Biso   1.000  H
