data_image0
_cell_length_a       14.678
_cell_length_b       18.795
_cell_length_c       12.977
_cell_angle_alpha    90
_cell_angle_beta     95.85
_cell_angle_gamma    90

_symmetry_space_group_name_H-M    "P 1"
_symmetry_int_tables_number       1

loop_
  _symmetry_equiv_pos_as_xyz
  'x, y, z'

loop_
  _atom_site_label
  _atom_site_occupancy
  _atom_site_fract_x
  _atom_site_fract_y
  _atom_site_fract_z
  _atom_site_thermal_displace_type
  _atom_site_B_iso_or_equiv
  _atom_site_type_symbol
  C1       1.0000 0.18765  0.16989  0.44781  Biso   1.000  C
  N1       1.0000 0.17990  0.16350  0.34363  Biso   1.000  N
  N2       1.0000 0.11240  0.20638  0.47392  Biso   1.000  N
  O1       1.0000 0.25125  0.14930  0.50792  Biso   1.000  O
  C2       1.0000 0.24891  0.12908  0.28692  Biso   1.000  C
  C3       1.0000 0.10310  0.20181  0.29428  Biso   1.000  C
  C4       1.0000 0.05883  0.23341  0.38592  Biso   1.000  C
  C5       1.0000 0.10814  0.23581  0.57702  Biso   1.000  C
  H1       1.0000 0.26048  0.15893  0.22859  Biso   1.000  H
  H2       1.0000 0.30564  0.12541  0.33201  Biso   1.000  H
  N3       1.0000 0.22254  0.05895  0.24912  Biso   1.000  N
  H3       1.0000 0.12254  0.23911  0.24842  Biso   1.000  H
  N4       1.0000 0.03221  0.15791  0.24254  Biso   1.000  N
  H4       1.0000 0.06013  0.28561  0.38453  Biso   1.000  H
  N5       1.0000 0.96621  0.20670  0.36973  Biso   1.000  N
  H5       1.0000 0.10061  0.28688  0.57137  Biso   1.000  H
  H6       1.0000 0.16575  0.22650  0.61831  Biso   1.000  H
  N6       1.0000 0.03384  0.20670  0.63032  Biso   1.000  N
  C6       1.0000 0.25362  0.00000  0.30141  Biso   1.000  C
  C7       1.0000 0.17493  0.04209  0.14718  Biso   1.000  C
  C8       1.0000 0.03792  0.12982  0.13881  Biso   1.000  C
  C9       1.0000 0.95103  0.16659  0.28212  Biso   1.000  C
  C10      1.0000 0.89191  0.23581  0.42302  Biso   1.000  C
  C11      1.0000 0.04902  0.16659  0.71793  Biso   1.000  C
  C12      1.0000 0.94122  0.23341  0.61413  Biso   1.000  C
  O2       1.0000 0.30283  0.00000  0.38251  Biso   1.000  O
  N7       1.0000 0.22254  0.94105  0.24912  Biso   1.000  N
  C13      1.0000 0.22049  0.07662  0.06073  Biso   1.000  C
  N8       1.0000 0.07769  0.05879  0.14013  Biso   1.000  N
  C14      1.0000 0.17493  0.95791  0.14718  Biso   1.000  C
  H7       1.0000 0.07481  0.16159  0.10132  Biso   1.000  H
  H8       1.0000 0.97698  0.12828  0.10210  Biso   1.000  H
  O3       1.0000 0.87731  0.14328  0.24579  Biso   1.000  O
  H9       1.0000 0.89943  0.28688  0.42860  Biso   1.000  H
  H10      1.0000 0.83430  0.22650  0.38174  Biso   1.000  H
  N9       1.0000 0.88765  0.20638  0.52613  Biso   1.000  N
  O4       1.0000 0.12274  0.14328  0.75418  Biso   1.000  O
  N10      1.0000 0.96784  0.15791  0.75751  Biso   1.000  N
  H11      1.0000 0.93992  0.28561  0.61552  Biso   1.000  H
  C15      1.0000 0.89695  0.20181  0.70569  Biso   1.000  C
  C16      1.0000 0.24891  0.87092  0.28692  Biso   1.000  C
  H12      1.0000 0.28440  0.06459  0.06763  Biso   1.000  H
  H13      1.0000 0.21380  0.12732  0.06437  Biso   1.000  H
  H14      1.0000 0.19245  0.05980  0.99527  Biso   1.000  H
  C17      1.0000 0.02264  0.00000  0.13176  Biso   1.000  C
  C18      1.0000 0.22049  0.92338  0.06073  Biso   1.000  C
  N11      1.0000 0.07769  0.94121  0.14013  Biso   1.000  N
  C19      1.0000 0.81247  0.16989  0.55223  Biso   1.000  C
  C20      1.0000 0.96213  0.12982  0.86123  Biso   1.000  C
  N12      1.0000 0.82015  0.16350  0.65642  Biso   1.000  N
  H15      1.0000 0.87758  0.23911  0.75162  Biso   1.000  H
  H16      1.0000 0.26048  0.84107  0.22859  Biso   1.000  H
  H17      1.0000 0.30564  0.87459  0.33201  Biso   1.000  H
  N13      1.0000 0.17990  0.83650  0.34363  Biso   1.000  N
  O5       1.0000 0.94012  0.00000  0.11953  Biso   1.000  O
  H18      1.0000 0.19245  0.94020  0.99527  Biso   1.000  H
  H19      1.0000 0.28440  0.93541  0.06763  Biso   1.000  H
  H20      1.0000 0.21380  0.87268  0.06437  Biso   1.000  H
  C21      1.0000 0.03792  0.87018  0.13881  Biso   1.000  C
  O6       1.0000 0.74880  0.14930  0.49212  Biso   1.000  O
  H21      1.0000 0.02307  0.12828  0.89787  Biso   1.000  H
  H22      1.0000 0.92524  0.16159  0.89872  Biso   1.000  H
  N14      1.0000 0.92236  0.05879  0.85991  Biso   1.000  N
  C22      1.0000 0.75114  0.12908  0.71312  Biso   1.000  C
  C23      1.0000 0.10310  0.79819  0.29428  Biso   1.000  C
  C24      1.0000 0.18765  0.83011  0.44781  Biso   1.000  C
  H23      1.0000 0.97698  0.87172  0.10210  Biso   1.000  H
  H24      1.0000 0.07481  0.83841  0.10132  Biso   1.000  H
  N15      1.0000 0.03221  0.84209  0.24254  Biso   1.000  N
  C25      1.0000 0.82518  0.04209  0.85279  Biso   1.000  C
  C26      1.0000 0.97747  0.00000  0.86820  Biso   1.000  C
  H25      1.0000 0.73956  0.15893  0.77137  Biso   1.000  H
  H26      1.0000 0.69441  0.12541  0.66804  Biso   1.000  H
  N16      1.0000 0.77757  0.05895  0.75092  Biso   1.000  N
  C27      1.0000 0.05883  0.76659  0.38592  Biso   1.000  C
  H27      1.0000 0.12254  0.76089  0.24842  Biso   1.000  H
  N17      1.0000 0.11240  0.79362  0.47392  Biso   1.000  N
  O7       1.0000 0.25125  0.85070  0.50792  Biso   1.000  O
  C28      1.0000 0.95103  0.83341  0.28212  Biso   1.000  C
  C29      1.0000 0.82518  0.95791  0.85279  Biso   1.000  C
  C30      1.0000 0.77956  0.07662  0.93931  Biso   1.000  C
  O8       1.0000 0.05993  0.00000  0.88052  Biso   1.000  O
  N18      1.0000 0.92236  0.94121  0.85991  Biso   1.000  N
  C31      1.0000 0.74643  0.00000  0.69864  Biso   1.000  C
  N19      1.0000 0.96621  0.79330  0.36973  Biso   1.000  N
  H28      1.0000 0.06013  0.71439  0.38453  Biso   1.000  H
  C32      1.0000 0.10814  0.76419  0.57702  Biso   1.000  C
  O9       1.0000 0.87731  0.85672  0.24579  Biso   1.000  O
  N20      1.0000 0.77757  0.94105  0.75092  Biso   1.000  N
  C33      1.0000 0.77956  0.92338  0.93931  Biso   1.000  C
  H29      1.0000 0.71565  0.06459  0.93242  Biso   1.000  H
  H30      1.0000 0.78624  0.12732  0.93560  Biso   1.000  H
  H31      1.0000 0.80760  0.05980  0.00469  Biso   1.000  H
  C34      1.0000 0.96213  0.87018  0.86123  Biso   1.000  C
  O10      1.0000 0.69722  0.00000  0.61753  Biso   1.000  O
  C35      1.0000 0.89191  0.76419  0.42302  Biso   1.000  C
  H32      1.0000 0.10061  0.71312  0.57137  Biso   1.000  H
  H33      1.0000 0.16575  0.77350  0.61831  Biso   1.000  H
  N21      1.0000 0.03384  0.79330  0.63032  Biso   1.000  N
  C36      1.0000 0.75114  0.87092  0.71312  Biso   1.000  C
  H34      1.0000 0.71565  0.93541  0.93242  Biso   1.000  H
  H35      1.0000 0.78624  0.87268  0.93560  Biso   1.000  H
  H36      1.0000 0.80760  0.94020  0.00469  Biso   1.000  H
  N22      1.0000 0.96784  0.84209  0.75751  Biso   1.000  N
  H37      1.0000 0.92524  0.83841  0.89872  Biso   1.000  H
  H38      1.0000 0.02307  0.87172  0.89787  Biso   1.000  H
  H39      1.0000 0.89943  0.71312  0.42860  Biso   1.000  H
  H40      1.0000 0.83430  0.77350  0.38174  Biso   1.000  H
  N23      1.0000 0.88765  0.79362  0.52613  Biso   1.000  N
  C37      1.0000 0.94122  0.76659  0.61413  Biso   1.000  C
  C38      1.0000 0.04902  0.83341  0.71793  Biso   1.000  C
  N24      1.0000 0.82015  0.83650  0.65642  Biso   1.000  N
  H41      1.0000 0.73956  0.84107  0.77137  Biso   1.000  H
  H42      1.0000 0.69441  0.87459  0.66804  Biso   1.000  H
  C39      1.0000 0.89695  0.79819  0.70569  Biso   1.000  C
  C40      1.0000 0.81247  0.83011  0.55223  Biso   1.000  C
  H43      1.0000 0.93992  0.71439  0.61552  Biso   1.000  H
  O11      1.0000 0.12274  0.85672  0.75418  Biso   1.000  O
  H44      1.0000 0.87758  0.76089  0.75162  Biso   1.000  H
  O12      1.0000 0.74880  0.85070  0.49212  Biso   1.000  O
  O13      1.0000 0.24880  0.35068  0.49212  Biso   1.000  O
  C41      1.0000 0.31247  0.33009  0.55223  Biso   1.000  C
  N25      1.0000 0.38765  0.29359  0.52613  Biso   1.000  N
  N26      1.0000 0.32015  0.33653  0.65642  Biso   1.000  N
  C42      1.0000 0.39191  0.26422  0.42302  Biso   1.000  C
  C43      1.0000 0.44122  0.26661  0.61413  Biso   1.000  C
  C44      1.0000 0.39695  0.29822  0.70569  Biso   1.000  C
  C45      1.0000 0.25114  0.37090  0.71312  Biso   1.000  C
  N27      1.0000 0.46621  0.29332  0.36973  Biso   1.000  N
  H45      1.0000 0.39943  0.21309  0.42860  Biso   1.000  H
  H46      1.0000 0.33430  0.27348  0.38174  Biso   1.000  H
  H47      1.0000 0.43992  0.21442  0.61552  Biso   1.000  H
  N28      1.0000 0.53384  0.29332  0.63032  Biso   1.000  N
  H48      1.0000 0.37758  0.26092  0.75162  Biso   1.000  H
  N29      1.0000 0.46784  0.34211  0.75751  Biso   1.000  N
  H49      1.0000 0.23956  0.34110  0.77137  Biso   1.000  H
  H50      1.0000 0.19441  0.37462  0.66804  Biso   1.000  H
  N30      1.0000 0.27757  0.44107  0.75092  Biso   1.000  N
  C46      1.0000 0.45103  0.33339  0.28212  Biso   1.000  C
  C47      1.0000 0.55883  0.26661  0.38592  Biso   1.000  C
  C48      1.0000 0.60814  0.26422  0.57702  Biso   1.000  C
  C49      1.0000 0.54902  0.33339  0.71793  Biso   1.000  C
  C50      1.0000 0.46213  0.37020  0.86123  Biso   1.000  C
  C51      1.0000 0.32518  0.45789  0.85279  Biso   1.000  C
  C52      1.0000 0.24643  0.50003  0.69864  Biso   1.000  C
  O14      1.0000 0.37731  0.35669  0.24579  Biso   1.000  O
  N31      1.0000 0.53221  0.34211  0.24254  Biso   1.000  N
  C53      1.0000 0.60310  0.29822  0.29428  Biso   1.000  C
  H51      1.0000 0.56013  0.21442  0.38453  Biso   1.000  H
  N32      1.0000 0.61240  0.29359  0.47392  Biso   1.000  N
  H52      1.0000 0.60061  0.21309  0.57137  Biso   1.000  H
  H53      1.0000 0.66575  0.27348  0.61831  Biso   1.000  H
  O15      1.0000 0.62274  0.35669  0.75418  Biso   1.000  O
  H54      1.0000 0.52307  0.37169  0.89787  Biso   1.000  H
  H55      1.0000 0.42524  0.33839  0.89872  Biso   1.000  H
  N33      1.0000 0.42236  0.44118  0.85991  Biso   1.000  N
  C54      1.0000 0.32518  0.54211  0.85279  Biso   1.000  C
  C55      1.0000 0.27956  0.42341  0.93931  Biso   1.000  C
  N34      1.0000 0.27757  0.55893  0.75092  Biso   1.000  N
  O16      1.0000 0.19722  0.50003  0.61753  Biso   1.000  O
  C56      1.0000 0.53792  0.37020  0.13881  Biso   1.000  C
  H56      1.0000 0.62254  0.26092  0.24842  Biso   1.000  H
  N35      1.0000 0.67990  0.33653  0.34363  Biso   1.000  N
  C57      1.0000 0.68765  0.33009  0.44781  Biso   1.000  C
  C58      1.0000 0.47747  0.50003  0.86820  Biso   1.000  C
  C59      1.0000 0.27956  0.57659  0.93931  Biso   1.000  C
  N36      1.0000 0.42236  0.55882  0.85991  Biso   1.000  N
  H57      1.0000 0.21565  0.43538  0.93242  Biso   1.000  H
  H58      1.0000 0.28624  0.37271  0.93560  Biso   1.000  H
  H59      1.0000 0.30760  0.44022  0.00469  Biso   1.000  H
  C60      1.0000 0.25114  0.62910  0.71312  Biso   1.000  C
  H60      1.0000 0.47698  0.37169  0.10210  Biso   1.000  H
  H61      1.0000 0.57481  0.33839  0.10132  Biso   1.000  H
  N37      1.0000 0.57769  0.44118  0.14013  Biso   1.000  N
  C61      1.0000 0.74891  0.37090  0.28692  Biso   1.000  C
  O17      1.0000 0.75125  0.35068  0.50792  Biso   1.000  O
  O18      1.0000 0.55993  0.50003  0.88052  Biso   1.000  O
  H62      1.0000 0.21565  0.56462  0.93242  Biso   1.000  H
  H63      1.0000 0.28624  0.62729  0.93560  Biso   1.000  H
  H64      1.0000 0.30760  0.55978  0.00469  Biso   1.000  H
  C62      1.0000 0.46213  0.62980  0.86123  Biso   1.000  C
  H65      1.0000 0.23956  0.65890  0.77137  Biso   1.000  H
  H66      1.0000 0.19441  0.62538  0.66804  Biso   1.000  H
  N38      1.0000 0.32015  0.66347  0.65642  Biso   1.000  N
  C63      1.0000 0.67493  0.45789  0.14718  Biso   1.000  C
  C64      1.0000 0.52264  0.50003  0.13176  Biso   1.000  C
  H67      1.0000 0.76048  0.34110  0.22859  Biso   1.000  H
  H68      1.0000 0.80564  0.37462  0.33201  Biso   1.000  H
  N39      1.0000 0.72254  0.44107  0.24912  Biso   1.000  N
  H69      1.0000 0.52307  0.62831  0.89787  Biso   1.000  H
  H70      1.0000 0.42524  0.66161  0.89872  Biso   1.000  H
  N40      1.0000 0.46784  0.65789  0.75751  Biso   1.000  N
  C65      1.0000 0.39695  0.70178  0.70569  Biso   1.000  C
  C66      1.0000 0.31247  0.66991  0.55223  Biso   1.000  C
  C67      1.0000 0.72049  0.42341  0.06073  Biso   1.000  C
  C68      1.0000 0.67493  0.54211  0.14718  Biso   1.000  C
  O19      1.0000 0.44012  0.50003  0.11953  Biso   1.000  O
  N41      1.0000 0.57769  0.55882  0.14013  Biso   1.000  N
  C69      1.0000 0.75362  0.50003  0.30141  Biso   1.000  C
  C70      1.0000 0.54902  0.66661  0.71793  Biso   1.000  C
  C71      1.0000 0.44122  0.73339  0.61413  Biso   1.000  C
  H71      1.0000 0.37758  0.73908  0.75162  Biso   1.000  H
  N42      1.0000 0.38765  0.70641  0.52613  Biso   1.000  N
  O20      1.0000 0.24880  0.64932  0.49212  Biso   1.000  O
  H72      1.0000 0.78440  0.43538  0.06763  Biso   1.000  H
  H73      1.0000 0.71380  0.37271  0.06437  Biso   1.000  H
  H74      1.0000 0.69245  0.44022  0.99527  Biso   1.000  H
  C72      1.0000 0.72049  0.57659  0.06073  Biso   1.000  C
  N43      1.0000 0.72254  0.55893  0.24912  Biso   1.000  N
  C73      1.0000 0.53792  0.62980  0.13881  Biso   1.000  C
  O21      1.0000 0.80283  0.50003  0.38251  Biso   1.000  O
  N44      1.0000 0.53384  0.70668  0.63032  Biso   1.000  N
  O22      1.0000 0.62274  0.64331  0.75418  Biso   1.000  O
  H75      1.0000 0.43992  0.78558  0.61552  Biso   1.000  H
  C74      1.0000 0.39191  0.73578  0.42302  Biso   1.000  C
  H76      1.0000 0.78440  0.56462  0.06763  Biso   1.000  H
  H77      1.0000 0.71380  0.62729  0.06437  Biso   1.000  H
  H78      1.0000 0.69245  0.55978  0.99527  Biso   1.000  H
  C75      1.0000 0.74891  0.62910  0.28692  Biso   1.000  C
  H79      1.0000 0.47698  0.62831  0.10210  Biso   1.000  H
  H80      1.0000 0.57481  0.66161  0.10132  Biso   1.000  H
  N45      1.0000 0.53221  0.65789  0.24254  Biso   1.000  N
  C76      1.0000 0.60814  0.73578  0.57702  Biso   1.000  C
  N46      1.0000 0.46621  0.70668  0.36973  Biso   1.000  N
  H81      1.0000 0.39943  0.78691  0.42860  Biso   1.000  H
  H82      1.0000 0.33430  0.72652  0.38174  Biso   1.000  H
  H83      1.0000 0.76048  0.65890  0.22859  Biso   1.000  H
  H84      1.0000 0.80564  0.62538  0.33201  Biso   1.000  H
  N47      1.0000 0.67990  0.66347  0.34363  Biso   1.000  N
  C77      1.0000 0.45103  0.66661  0.28212  Biso   1.000  C
  C78      1.0000 0.60310  0.70178  0.29428  Biso   1.000  C
  N48      1.0000 0.61240  0.70641  0.47392  Biso   1.000  N
  H85      1.0000 0.60061  0.78691  0.57137  Biso   1.000  H
  H86      1.0000 0.66575  0.72652  0.61831  Biso   1.000  H
  C79      1.0000 0.55883  0.73339  0.38592  Biso   1.000  C
  C80      1.0000 0.68765  0.66991  0.44781  Biso   1.000  C
  O23      1.0000 0.37731  0.64331  0.24579  Biso   1.000  O
  H87      1.0000 0.62254  0.73908  0.24842  Biso   1.000  H
  H88      1.0000 0.56013  0.78558  0.38453  Biso   1.000  H
  O24      1.0000 0.75125  0.64932  0.50792  Biso   1.000  O
  Ne1      1.0000 0.00003  0.00000  0.50002  Biso   1.000  Ne
  He1      1.0000 0.20542  0.00000  0.63760  Biso   1.000  He
  He2      1.0000 0.79212  0.00000  0.36057  Biso   1.000  He
  Ar1      1.0000 0.00003  0.00000  0.50002  Biso   1.000  Ar
  Ne2      1.0000 0.50003  0.50000  0.50002  Biso   1.000  Ne
  He3      1.0000 0.70542  0.50000  0.63760  Biso   1.000  He
  He4      1.0000 0.29212  0.50000  0.36057  Biso   1.000  He
  Ar2      1.0000 0.50003  0.50000  0.50002  Biso   1.000  Ar
