data_image0
_cell_length_a       12.184
_cell_length_b       12.809
_cell_length_c       23.441
_cell_angle_alpha    90.02
_cell_angle_beta     102.25
_cell_angle_gamma    91.98

_symmetry_space_group_name_H-M    "P 1"
_symmetry_int_tables_number       1

loop_
  _symmetry_equiv_pos_as_xyz
  'x, y, z'

loop_
  _atom_site_label
  _atom_site_occupancy
  _atom_site_fract_x
  _atom_site_fract_y
  _atom_site_fract_z
  _atom_site_thermal_displace_type
  _atom_site_B_iso_or_equiv
  _atom_site_type_symbol
  C1       1.0000 0.57293  0.47368  0.57040  Biso   1.000  C
  N1       1.0000 0.58174  0.36784  0.57647  Biso   1.000  N
  N2       1.0000 0.48214  0.50343  0.59145  Biso   1.000  N
  O1       1.0000 0.63332  0.53062  0.54779  Biso   1.000  O
  C2       1.0000 0.66916  0.30925  0.55958  Biso   1.000  C
  C3       1.0000 0.48897  0.32002  0.59795  Biso   1.000  C
  C4       1.0000 0.41607  0.41394  0.60502  Biso   1.000  C
  C5       1.0000 0.43325  0.60426  0.57931  Biso   1.000  C
  H1       1.0000 0.63521  0.24724  0.53823  Biso   1.000  H
  H2       1.0000 0.70354  0.35145  0.53330  Biso   1.000  H
  N3       1.0000 0.75630  0.27775  0.60817  Biso   1.000  N
  H3       1.0000 0.44710  0.26753  0.57062  Biso   1.000  H
  N4       1.0000 0.51971  0.27984  0.65671  Biso   1.000  N
  H4       1.0000 0.34233  0.40833  0.57831  Biso   1.000  H
  N5       1.0000 0.40617  0.40776  0.66518  Biso   1.000  N
  H5       1.0000 0.47481  0.64313  0.55482  Biso   1.000  H
  H6       1.0000 0.35655  0.59403  0.55739  Biso   1.000  H
  N6       1.0000 0.43270  0.66568  0.63100  Biso   1.000  N
  C6       1.0000 0.75658  0.17827  0.63903  Biso   1.000  C
  C7       1.0000 0.85858  0.32805  0.61921  Biso   1.000  C
  C8       1.0000 0.56424  0.17697  0.66880  Biso   1.000  C
  C9       1.0000 0.46250  0.32715  0.69351  Biso   1.000  C
  C10      1.0000 0.32310  0.46330  0.68775  Biso   1.000  C
  C11      1.0000 0.34376  0.65504  0.66300  Biso   1.000  C
  C12      1.0000 0.49013  0.75957  0.64130  Biso   1.000  C
  C13      1.0000 0.87932  0.17946  0.67902  Biso   1.000  C
  C14      1.0000 0.72703  0.08613  0.59695  Biso   1.000  C
  N7       1.0000 0.68482  0.17715  0.68168  Biso   1.000  N
  N8       1.0000 0.92894  0.27704  0.66322  Biso   1.000  N
  O2       1.0000 0.88480  0.40653  0.59503  Biso   1.000  O
  H7       1.0000 0.53575  0.13197  0.63519  Biso   1.000  H
  H8       1.0000 0.53722  0.14775  0.70172  Biso   1.000  H
  O3       1.0000 0.46293  0.29957  0.74367  Biso   1.000  O
  H9       1.0000 0.25389  0.46257  0.65820  Biso   1.000  H
  H10      1.0000 0.30767  0.42620  0.72141  Biso   1.000  H
  N9       1.0000 0.35560  0.57025  0.70456  Biso   1.000  N
  H11      1.0000 0.26942  0.65256  0.63672  Biso   1.000  H
  C15      1.0000 0.36128  0.75355  0.70216  Biso   1.000  C
  N10      1.0000 0.45565  0.80863  0.68618  Biso   1.000  N
  O4       1.0000 0.55955  0.79459  0.61502  Biso   1.000  O
  C16      1.0000 0.94830  0.08616  0.67173  Biso   1.000  C
  N11      1.0000 0.85593  0.18185  0.73813  Biso   1.000  N
  H12      1.0000 0.77502  0.08878  0.56931  Biso   1.000  H
  H13      1.0000 0.73744  0.02206  0.61829  Biso   1.000  H
  H14      1.0000 0.65007  0.08959  0.57660  Biso   1.000  H
  C17      1.0000 0.74469  0.17724  0.73787  Biso   1.000  C
  C18      1.0000 0.04465  0.31310  0.68308  Biso   1.000  C
  C19      1.0000 0.37372  0.60549  0.76109  Biso   1.000  C
  N12      1.0000 0.38417  0.71181  0.76096  Biso   1.000  N
  H15      1.0000 0.29423  0.79587  0.69500  Biso   1.000  H
  C20      1.0000 0.49124  0.91397  0.70508  Biso   1.000  C
  H16      1.0000 0.91244  0.02390  0.68290  Biso   1.000  H
  H17      1.0000 0.95412  0.08029  0.63161  Biso   1.000  H
  H18      1.0000 0.02215  0.09525  0.69600  Biso   1.000  H
  C21      1.0000 0.93956  0.18847  0.79200  Biso   1.000  C
  O5       1.0000 0.70362  0.17286  0.78161  Biso   1.000  O
  H19      1.0000 0.09120  0.25267  0.69111  Biso   1.000  H
  H20      1.0000 0.06786  0.35148  0.65169  Biso   1.000  H
  N13      1.0000 0.06521  0.37921  0.73481  Biso   1.000  N
  O6       1.0000 0.37727  0.55055  0.80405  Biso   1.000  O
  C22      1.0000 0.39939  0.77674  0.81256  Biso   1.000  C
  H21      1.0000 0.52037  0.94908  0.67439  Biso   1.000  H
  H22      1.0000 0.42631  0.95115  0.71080  Biso   1.000  H
  N14      1.0000 0.57659  0.91949  0.75865  Biso   1.000  N
  H23      1.0000 0.90761  0.15828  0.82300  Biso   1.000  H
  N15      1.0000 0.98024  0.29369  0.80872  Biso   1.000  N
  H24      1.0000 0.00275  0.14709  0.78803  Biso   1.000  H
  C23      1.0000 0.07990  0.34019  0.79357  Biso   1.000  C
  C24      1.0000 0.07071  0.48533  0.73241  Biso   1.000  C
  H25      1.0000 0.34995  0.83506  0.80409  Biso   1.000  H
  H26      1.0000 0.37655  0.73648  0.84343  Biso   1.000  H
  N16      1.0000 0.51280  0.81719  0.83365  Biso   1.000  N
  C25      1.0000 0.55796  0.91798  0.81811  Biso   1.000  C
  C26      1.0000 0.68759  0.92297  0.75620  Biso   1.000  C
  C27      1.0000 0.95324  0.34325  0.85539  Biso   1.000  C
  C28      1.0000 0.10220  0.44165  0.83133  Biso   1.000  C
  H27      1.0000 0.14346  0.29369  0.80283  Biso   1.000  H
  N17      1.0000 0.08414  0.52424  0.78838  Biso   1.000  N
  O7       1.0000 0.06852  0.53808  0.68897  Biso   1.000  O
  C29      1.0000 0.58577  0.76717  0.87612  Biso   1.000  C
  C30      1.0000 0.68340  0.92008  0.85639  Biso   1.000  C
  C31      1.0000 0.48675  0.00749  0.82871  Biso   1.000  C
  N18      1.0000 0.75041  0.91969  0.81186  Biso   1.000  N
  O8       1.0000 0.72489  0.93008  0.71224  Biso   1.000  O
  O9       1.0000 0.88143  0.31378  0.88154  Biso   1.000  O
  N19      1.0000 0.02081  0.43248  0.86761  Biso   1.000  N
  H28      1.0000 0.17915  0.44550  0.85482  Biso   1.000  H
  C32      1.0000 0.11328  0.63277  0.80125  Biso   1.000  C
  N20      1.0000 0.68575  0.82148  0.88822  Biso   1.000  N
  O10      1.0000 0.56432  0.68587  0.89996  Biso   1.000  O
  C33      1.0000 0.71551  0.01221  0.89730  Biso   1.000  C
  H29      1.0000 0.47535  0.00445  0.86800  Biso   1.000  H
  H30      1.0000 0.52437  0.07256  0.82300  Biso   1.000  H
  H31      1.0000 0.41534  0.00227  0.80182  Biso   1.000  H
  C34      1.0000 0.87177  0.91928  0.82190  Biso   1.000  C
  C35      1.0000 0.02002  0.49755  0.91777  Biso   1.000  C
  H32      1.0000 0.18385  0.63786  0.82972  Biso   1.000  H
  H33      1.0000 0.12471  0.66696  0.76589  Biso   1.000  H
  N21      1.0000 0.02889  0.68730  0.82369  Biso   1.000  N
  C36      1.0000 0.77728  0.78846  0.93440  Biso   1.000  C
  H34      1.0000 0.71310  0.07525  0.87512  Biso   1.000  H
  H35      1.0000 0.66368  0.01546  0.92284  Biso   1.000  H
  H36      1.0000 0.79007  0.00425  0.92000  Biso   1.000  H
  N22      1.0000 0.91691  0.81616  0.83247  Biso   1.000  N
  H37      1.0000 0.89545  0.94888  0.78820  Biso   1.000  H
  H38      1.0000 0.90319  0.96381  0.85530  Biso   1.000  H
  H39      1.0000 0.98097  0.45972  0.94370  Biso   1.000  H
  N23      1.0000 0.96688  0.59726  0.90358  Biso   1.000  N
  H40      1.0000 0.09696  0.51089  0.93860  Biso   1.000  H
  C37      1.0000 0.97148  0.76845  0.79488  Biso   1.000  C
  C38      1.0000 0.02614  0.68637  0.88520  Biso   1.000  C
  N24      1.0000 0.86022  0.72857  0.91410  Biso   1.000  N
  H41      1.0000 0.74607  0.74682  0.96199  Biso   1.000  H
  H42      1.0000 0.81443  0.84999  0.95501  Biso   1.000  H
  C39      1.0000 0.95048  0.77801  0.89136  Biso   1.000  C
  C40      1.0000 0.87493  0.62480  0.92319  Biso   1.000  C
  O11      1.0000 0.97014  0.79383  0.74450  Biso   1.000  O
  H43      1.0000 0.10149  0.69671  0.90983  Biso   1.000  H
  H44      1.0000 0.99102  0.83220  0.91790  Biso   1.000  H
  O12      1.0000 0.81595  0.56552  0.94624  Biso   1.000  O
  C41      1.0000 0.42718  0.52646  0.42961  Biso   1.000  C
  N25      1.0000 0.51797  0.49663  0.40857  Biso   1.000  N
  N26      1.0000 0.41828  0.63222  0.42355  Biso   1.000  N
  O13      1.0000 0.36671  0.46944  0.45223  Biso   1.000  O
  C42      1.0000 0.56686  0.39580  0.42071  Biso   1.000  C
  C43      1.0000 0.58404  0.58612  0.39500  Biso   1.000  C
  C44      1.0000 0.51114  0.68004  0.40207  Biso   1.000  C
  C45      1.0000 0.33095  0.69081  0.44044  Biso   1.000  C
  N27      1.0000 0.56742  0.33445  0.36902  Biso   1.000  N
  H45      1.0000 0.52522  0.35693  0.44520  Biso   1.000  H
  H46      1.0000 0.64356  0.40603  0.44262  Biso   1.000  H
  N28      1.0000 0.59392  0.59231  0.33479  Biso   1.000  N
  H47      1.0000 0.65778  0.59173  0.42171  Biso   1.000  H
  N29      1.0000 0.48039  0.72022  0.34326  Biso   1.000  N
  H48      1.0000 0.55301  0.73253  0.42940  Biso   1.000  H
  H49      1.0000 0.36490  0.75283  0.46179  Biso   1.000  H
  H50      1.0000 0.29657  0.64861  0.46672  Biso   1.000  H
  N30      1.0000 0.24381  0.72231  0.39185  Biso   1.000  N
  C46      1.0000 0.50998  0.24057  0.35872  Biso   1.000  C
  C47      1.0000 0.65635  0.34502  0.33702  Biso   1.000  C
  C48      1.0000 0.67701  0.53684  0.31227  Biso   1.000  C
  C49      1.0000 0.53761  0.67291  0.30651  Biso   1.000  C
  C50      1.0000 0.43587  0.82309  0.33122  Biso   1.000  C
  C51      1.0000 0.24353  0.82179  0.36099  Biso   1.000  C
  C52      1.0000 0.14153  0.67201  0.38081  Biso   1.000  C
  N31      1.0000 0.54446  0.19143  0.31384  Biso   1.000  N
  O14      1.0000 0.44055  0.20555  0.38496  Biso   1.000  O
  C53      1.0000 0.63883  0.24651  0.29786  Biso   1.000  C
  H51      1.0000 0.73061  0.34750  0.36330  Biso   1.000  H
  N32      1.0000 0.64451  0.42982  0.29546  Biso   1.000  N
  H52      1.0000 0.74622  0.53749  0.34182  Biso   1.000  H
  H53      1.0000 0.69244  0.57394  0.27861  Biso   1.000  H
  O15      1.0000 0.53718  0.70049  0.25635  Biso   1.000  O
  H54      1.0000 0.46426  0.86809  0.36479  Biso   1.000  H
  H55      1.0000 0.46289  0.85231  0.29830  Biso   1.000  H
  N33      1.0000 0.31529  0.82291  0.31834  Biso   1.000  N
  C54      1.0000 0.12079  0.82060  0.32100  Biso   1.000  C
  C55      1.0000 0.27308  0.91394  0.40307  Biso   1.000  C
  N34      1.0000 0.07117  0.72302  0.33680  Biso   1.000  N
  O16      1.0000 0.11531  0.59353  0.40499  Biso   1.000  O
  C56      1.0000 0.50887  0.08609  0.29494  Biso   1.000  C
  N35      1.0000 0.61594  0.28833  0.23906  Biso   1.000  N
  H56      1.0000 0.70588  0.20419  0.30502  Biso   1.000  H
  C57      1.0000 0.62640  0.39465  0.23893  Biso   1.000  C
  C58      1.0000 0.25542  0.82282  0.26215  Biso   1.000  C
  N36      1.0000 0.14418  0.81821  0.26189  Biso   1.000  N
  C59      1.0000 0.05181  0.91390  0.32829  Biso   1.000  C
  H57      1.0000 0.22509  0.91136  0.43071  Biso   1.000  H
  H58      1.0000 0.26267  0.97800  0.38172  Biso   1.000  H
  H59      1.0000 0.35004  0.91055  0.42342  Biso   1.000  H
  C60      1.0000 0.95547  0.68704  0.31694  Biso   1.000  C
  N37      1.0000 0.42352  0.08065  0.24137  Biso   1.000  N
  H60      1.0000 0.47972  0.05106  0.32558  Biso   1.000  H
  H61      1.0000 0.57379  0.04891  0.28922  Biso   1.000  H
  C61      1.0000 0.60072  0.22332  0.18746  Biso   1.000  C
  O17      1.0000 0.62283  0.44951  0.19597  Biso   1.000  O
  O18      1.0000 0.29649  0.82720  0.21841  Biso   1.000  O
  C62      1.0000 0.06055  0.81159  0.20802  Biso   1.000  C
  H62      1.0000 0.08768  0.97623  0.31711  Biso   1.000  H
  H63      1.0000 0.04600  0.91985  0.36841  Biso   1.000  H
  H64      1.0000 0.97796  0.90481  0.30402  Biso   1.000  H
  N38      1.0000 0.93490  0.62093  0.26521  Biso   1.000  N
  H65      1.0000 0.90891  0.74739  0.30891  Biso   1.000  H
  H66      1.0000 0.93223  0.64866  0.34828  Biso   1.000  H
  C63      1.0000 0.31251  0.07709  0.24377  Biso   1.000  C
  C64      1.0000 0.44215  0.08208  0.18191  Biso   1.000  C
  N39      1.0000 0.48731  0.18295  0.16637  Biso   1.000  N
  H67      1.0000 0.65014  0.16500  0.19588  Biso   1.000  H
  H68      1.0000 0.62348  0.26358  0.15659  Biso   1.000  H
  N40      1.0000 0.01987  0.70645  0.19130  Biso   1.000  N
  H69      1.0000 0.09250  0.84178  0.17702  Biso   1.000  H
  H70      1.0000 0.99736  0.85297  0.21199  Biso   1.000  H
  C65      1.0000 0.92938  0.51473  0.26757  Biso   1.000  C
  C66      1.0000 0.92021  0.65994  0.20645  Biso   1.000  C
  N41      1.0000 0.24971  0.08045  0.18816  Biso   1.000  N
  O19      1.0000 0.27522  0.07006  0.28778  Biso   1.000  O
  C67      1.0000 0.31671  0.07998  0.14363  Biso   1.000  C
  C68      1.0000 0.51336  0.99265  0.17130  Biso   1.000  C
  C69      1.0000 0.41434  0.23289  0.12389  Biso   1.000  C
  C70      1.0000 0.04687  0.65681  0.14463  Biso   1.000  C
  N42      1.0000 0.91597  0.47582  0.21164  Biso   1.000  N
  O20      1.0000 0.93159  0.46206  0.31105  Biso   1.000  O
  C71      1.0000 0.89789  0.55841  0.16864  Biso   1.000  C
  H71      1.0000 0.85665  0.70637  0.19719  Biso   1.000  H
  C72      1.0000 0.12833  0.08078  0.17811  Biso   1.000  C
  N43      1.0000 0.31435  0.17859  0.11180  Biso   1.000  N
  C73      1.0000 0.28460  0.98793  0.10272  Biso   1.000  C
  H72      1.0000 0.52476  0.99561  0.13201  Biso   1.000  H
  H73      1.0000 0.47574  0.92750  0.17702  Biso   1.000  H
  H74      1.0000 0.58477  0.99779  0.19820  Biso   1.000  H
  O21      1.0000 0.43579  0.31419  0.10006  Biso   1.000  O
  N44      1.0000 0.97930  0.56758  0.13241  Biso   1.000  N
  O22      1.0000 0.11868  0.68628  0.11848  Biso   1.000  O
  C74      1.0000 0.88683  0.36729  0.19876  Biso   1.000  C
  H75      1.0000 0.82096  0.55464  0.14520  Biso   1.000  H
  H76      1.0000 0.10466  0.05126  0.21182  Biso   1.000  H
  H77      1.0000 0.09692  0.03633  0.14472  Biso   1.000  H
  N45      1.0000 0.08320  0.18390  0.16755  Biso   1.000  N
  C75      1.0000 0.22283  0.21160  0.06561  Biso   1.000  C
  H78      1.0000 0.28701  0.92481  0.12490  Biso   1.000  H
  H79      1.0000 0.33643  0.98460  0.07718  Biso   1.000  H
  H80      1.0000 0.21004  0.99581  0.08002  Biso   1.000  H
  C76      1.0000 0.98009  0.50251  0.08225  Biso   1.000  C
  N46      1.0000 0.97123  0.31284  0.17632  Biso   1.000  N
  H81      1.0000 0.81626  0.36220  0.17030  Biso   1.000  H
  H82      1.0000 0.87540  0.33310  0.23413  Biso   1.000  H
  C77      1.0000 0.04963  0.22213  0.10866  Biso   1.000  C
  C78      1.0000 0.02863  0.23161  0.20514  Biso   1.000  C
  H83      1.0000 0.25402  0.25332  0.03798  Biso   1.000  H
  H84      1.0000 0.18568  0.15007  0.04501  Biso   1.000  H
  N47      1.0000 0.13988  0.27149  0.08587  Biso   1.000  N
  N48      1.0000 0.03315  0.40280  0.09644  Biso   1.000  N
  H85      1.0000 0.01915  0.54042  0.05632  Biso   1.000  H
  H86      1.0000 0.90313  0.48917  0.06138  Biso   1.000  H
  C79      1.0000 0.97395  0.31369  0.11477  Biso   1.000  C
  H87      1.0000 0.00909  0.16793  0.08212  Biso   1.000  H
  O23      1.0000 0.02989  0.20623  0.25552  Biso   1.000  O
  C80      1.0000 0.12519  0.37534  0.07683  Biso   1.000  C
  H88      1.0000 0.89854  0.30342  0.09019  Biso   1.000  H
  O24      1.0000 0.18416  0.43462  0.05378  Biso   1.000  O
  Ne1      1.0000 0.27963  0.45152  0.25302  Biso   1.000  Ne
  He1      1.0000 0.20278  0.31452  0.36299  Biso   1.000  He
  He2      1.0000 0.37159  0.54749  0.15967  Biso   1.000  He
  Ar1      1.0000 0.28231  0.45386  0.25353  Biso   1.000  Ar
  Ne2      1.0000 0.72048  0.54857  0.74700  Biso   1.000  Ne
  He3      1.0000 0.63349  0.41924  0.85369  Biso   1.000  He
  He4      1.0000 0.83191  0.64505  0.64163  Biso   1.000  He
  Ar2      1.0000 0.71779  0.54621  0.74649  Biso   1.000  Ar
