data_image0
_cell_length_a       20.46
_cell_length_b       10.003
_cell_length_c       15.227
_cell_angle_alpha    90
_cell_angle_beta     109.02
_cell_angle_gamma    90

_symmetry_space_group_name_H-M    "P 1"
_symmetry_int_tables_number       1

loop_
  _symmetry_equiv_pos_as_xyz
  'x, y, z'

loop_
  _atom_site_label
  _atom_site_occupancy
  _atom_site_fract_x
  _atom_site_fract_y
  _atom_site_fract_z
  _atom_site_thermal_displace_type
  _atom_site_B_iso_or_equiv
  _atom_site_type_symbol
  O1       1.0000 0.58298  0.16175  0.41769  Biso   1.000  O
  C1       1.0000 0.60149  0.28292  0.38296  Biso   1.000  C
  C2       1.0000 0.57158  0.29071  0.27557  Biso   1.000  C
  C3       1.0000 0.68029  0.29781  0.41526  Biso   1.000  C
  H1       1.0000 0.58098  0.36639  0.41186  Biso   1.000  H
  O2       1.0000 0.49851  0.28631  0.24132  Biso   1.000  O
  H2       1.0000 0.58938  0.20374  0.24618  Biso   1.000  H
  C4       1.0000 0.59997  0.41518  0.24229  Biso   1.000  C
  H3       1.0000 0.70107  0.31161  0.49126  Biso   1.000  H
  O3       1.0000 0.70150  0.41138  0.37636  Biso   1.000  O
  O4       1.0000 0.70796  0.18135  0.38789  Biso   1.000  O
  H4       1.0000 0.58450  0.50655  0.27119  Biso   1.000  H
  C5       1.0000 0.67860  0.40678  0.27592  Biso   1.000  C
  O5       1.0000 0.57059  0.41318  0.14372  Biso   1.000  O
  C6       1.0000 0.75348  0.10017  0.45930  Biso   1.000  C
  H5       1.0000 0.69459  0.31011  0.25397  Biso   1.000  H
  C7       1.0000 0.71791  0.51415  0.24271  Biso   1.000  C
  C8       1.0000 0.54848  0.53704  0.09892  Biso   1.000  C
  H6       1.0000 0.74665  0.11846  0.52787  Biso   1.000  H
  C9       1.0000 0.82888  0.12746  0.46750  Biso   1.000  C
  C10      1.0000 0.73386  0.95671  0.43020  Biso   1.000  C
  H7       1.0000 0.70619  0.50245  0.16922  Biso   1.000  H
  H8       1.0000 0.77378  0.50045  0.27821  Biso   1.000  H
  O6       1.0000 0.69987  0.64741  0.25660  Biso   1.000  O
  H9       1.0000 0.54720  0.61422  0.14928  Biso   1.000  H
  C11      1.0000 0.47590  0.51555  0.02938  Biso   1.000  C
  O7       1.0000 0.59428  0.58452  0.05439  Biso   1.000  O
  H10      1.0000 0.83490  0.11696  0.39720  Biso   1.000  H
  C12      1.0000 0.85469  0.26512  0.50418  Biso   1.000  C
  O8       1.0000 0.87265  0.03029  0.52967  Biso   1.000  O
  C13      1.0000 0.78565  0.85844  0.49056  Biso   1.000  C
  H11      1.0000 0.73300  0.94562  0.35670  Biso   1.000  H
  O9       1.0000 0.66687  0.93422  0.43388  Biso   1.000  O
  O10      1.0000 0.43009  0.46466  0.07468  Biso   1.000  O
  H12      1.0000 0.45393  0.61362  0.99986  Biso   1.000  H
  C14      1.0000 0.47934  0.42747  0.94846  Biso   1.000  C
  C15      1.0000 0.60312  0.49455  0.98625  Biso   1.000  C
  H13      1.0000 0.82778  0.33900  0.45208  Biso   1.000  H
  H14      1.0000 0.91057  0.27002  0.51592  Biso   1.000  H
  O11      1.0000 0.84137  0.29491  0.58691  Biso   1.000  O
  C16      1.0000 0.85899  0.89693  0.49612  Biso   1.000  C
  H15      1.0000 0.78186  0.86194  0.56100  Biso   1.000  H
  O12      1.0000 0.77028  0.72578  0.45319  Biso   1.000  O
  H16      1.0000 0.49485  0.32650  0.97694  Biso   1.000  H
  C17      1.0000 0.53375  0.48116  0.90963  Biso   1.000  C
  O13      1.0000 0.41592  0.42127  0.87441  Biso   1.000  O
  H17      1.0000 0.62059  0.39438  0.01820  Biso   1.000  H
  C18      1.0000 0.66013  0.55233  0.95471  Biso   1.000  C
  H18      1.0000 0.89800  0.83435  0.54711  Biso   1.000  H
  O14      1.0000 0.86530  0.88673  0.40727  Biso   1.000  O
  H19      1.0000 0.51815  0.57653  0.87614  Biso   1.000  H
  O15      1.0000 0.53972  0.38478  0.84092  Biso   1.000  O
  H20      1.0000 0.70921  0.54694  0.01118  Biso   1.000  H
  H21      1.0000 0.66584  0.49195  0.89705  Biso   1.000  H
  O16      1.0000 0.64486  0.68449  0.92116  Biso   1.000  O
  C19      1.0000 0.92229  0.81636  0.39540  Biso   1.000  C
  C20      1.0000 0.52312  0.42917  0.74951  Biso   1.000  C
  C21      1.0000 0.89377  0.68339  0.34872  Biso   1.000  C
  H22      1.0000 0.96088  0.79766  0.46382  Biso   1.000  H
  C22      1.0000 0.95280  0.90373  0.33538  Biso   1.000  C
  H23      1.0000 0.49426  0.52394  0.73916  Biso   1.000  H
  C23      1.0000 0.48067  0.31750  0.68817  Biso   1.000  C
  O17      1.0000 0.58203  0.45816  0.72582  Biso   1.000  O
  C24      1.0000 0.94549  0.61472  0.31127  Biso   1.000  C
  H24      1.0000 0.84709  0.70499  0.28988  Biso   1.000  H
  O18      1.0000 0.87756  0.59692  0.41228  Biso   1.000  O
  C25      1.0000 0.99279  0.02299  0.38901  Biso   1.000  C
  H25      1.0000 0.91138  0.93912  0.27362  Biso   1.000  H
  O19      1.0000 0.00100  0.82695  0.30620  Biso   1.000  O
  H26      1.0000 0.46574  0.35189  0.61391  Biso   1.000  H
  C26      1.0000 0.52544  0.19364  0.69963  Biso   1.000  C
  O20      1.0000 0.41866  0.29291  0.70755  Biso   1.000  O
  C27      1.0000 0.62923  0.34790  0.73381  Biso   1.000  C
  C28      1.0000 0.96987  0.71399  0.25119  Biso   1.000  C
  H27      1.0000 0.99096  0.58233  0.36900  Biso   1.000  H
  O21      1.0000 0.91121  0.50445  0.25640  Biso   1.000  O
  H28      1.0000 0.95808  0.08397  0.41339  Biso   1.000  H
  H29      1.0000 0.03568  0.98850  0.45118  Biso   1.000  H
  O22      1.0000 0.01960  0.10397  0.33350  Biso   1.000  O
  H30      1.0000 0.53896  0.15695  0.77292  Biso   1.000  H
  C29      1.0000 0.59215  0.22513  0.68067  Biso   1.000  C
  O23      1.0000 0.48845  0.09157  0.63781  Biso   1.000  O
  H31      1.0000 0.65375  0.31990  0.80571  Biso   1.000  H
  C30      1.0000 0.68314  0.40058  0.69310  Biso   1.000  C
  O24      1.0000 0.91200  0.75277  0.17603  Biso   1.000  O
  H32      1.0000 0.01021  0.66960  0.22667  Biso   1.000  H
  H33      1.0000 0.58033  0.24133  0.60453  Biso   1.000  H
  O25      1.0000 0.63602  0.11247  0.71144  Biso   1.000  O
  H34      1.0000 0.71882  0.31740  0.69150  Biso   1.000  H
  H35      1.0000 0.71273  0.48096  0.73791  Biso   1.000  H
  O26      1.0000 0.65195  0.44657  0.60037  Biso   1.000  O
  C31      1.0000 0.91502  0.73548  0.08468  Biso   1.000  C
  C32      1.0000 0.66296  0.04549  0.64941  Biso   1.000  C
  C33      1.0000 0.85040  0.65770  0.02702  Biso   1.000  C
  H36      1.0000 0.96148  0.67750  0.08683  Biso   1.000  H
  C34      1.0000 0.91669  0.87014  0.03737  Biso   1.000  C
  C35      1.0000 0.64973  0.89653  0.65733  Biso   1.000  C
  H37      1.0000 0.63695  0.07988  0.57723  Biso   1.000  H
  O27      1.0000 0.73383  0.07018  0.66955  Biso   1.000  O
  C36      1.0000 0.85512  0.63661  0.93081  Biso   1.000  C
  H38      1.0000 0.80381  0.71838  0.02438  Biso   1.000  H
  O28      1.0000 0.84680  0.53114  0.06683  Biso   1.000  O
  O29      1.0000 0.92095  0.84525  0.94651  Biso   1.000  O
  H39      1.0000 0.86978  0.92692  0.03237  Biso   1.000  H
  C37      1.0000 0.97909  0.95321  0.08829  Biso   1.000  C
  H40      1.0000 0.66857  0.83985  0.60745  Biso   1.000  H
  C38      1.0000 0.68983  0.85074  0.75555  Biso   1.000  C
  O30      1.0000 0.57737  0.87574  0.63565  Biso   1.000  O
  C39      1.0000 0.77446  0.03359  0.76291  Biso   1.000  C
  C40      1.0000 0.86433  0.77267  0.88761  Biso   1.000  C
  H41      1.0000 0.90005  0.57743  0.93533  Biso   1.000  H
  O31      1.0000 0.79813  0.56713  0.86975  Biso   1.000  O
  H42      1.0000 0.97930  0.03999  0.04522  Biso   1.000  H
  H43      1.0000 0.97472  0.98920  0.15512  Biso   1.000  H
  O32      1.0000 0.04132  0.87844  0.10989  Biso   1.000  O
  H44      1.0000 0.67123  0.90563  0.80661  Biso   1.000  H
  C41      1.0000 0.76632  0.88463  0.77632  Biso   1.000  C
  O33      1.0000 0.68133  0.71029  0.76403  Biso   1.000  O
  H45      1.0000 0.75683  0.09227  0.81272  Biso   1.000  H
  C42      1.0000 0.84834  0.07638  0.77674  Biso   1.000  C
  O34      1.0000 0.80205  0.84465  0.87003  Biso   1.000  O
  H46      1.0000 0.87542  0.75497  0.82210  Biso   1.000  H
  H47      1.0000 0.78516  0.82575  0.72784  Biso   1.000  H
  H48      1.0000 0.88044  0.05468  0.84982  Biso   1.000  H
  H49      1.0000 0.85013  0.18305  0.76417  Biso   1.000  H
  O35      1.0000 0.87876  0.00520  0.71936  Biso   1.000  O
  O36      1.0000 0.41698  0.66180  0.58226  Biso   1.000  O
  C43      1.0000 0.39847  0.78287  0.61699  Biso   1.000  C
  C44      1.0000 0.31967  0.79776  0.58469  Biso   1.000  C
  H50      1.0000 0.41898  0.86644  0.58809  Biso   1.000  H
  C45      1.0000 0.42838  0.79066  0.72438  Biso   1.000  C
  O37      1.0000 0.29195  0.68130  0.61206  Biso   1.000  O
  H51      1.0000 0.29889  0.81156  0.50869  Biso   1.000  H
  O38      1.0000 0.29846  0.91143  0.62359  Biso   1.000  O
  H52      1.0000 0.41058  0.70369  0.75377  Biso   1.000  H
  C46      1.0000 0.39994  0.91523  0.75766  Biso   1.000  C
  O39      1.0000 0.50147  0.78626  0.75870  Biso   1.000  O
  C47      1.0000 0.24649  0.60022  0.54072  Biso   1.000  C
  C48      1.0000 0.32138  0.90683  0.72411  Biso   1.000  C
  O40      1.0000 0.42939  0.91323  0.85630  Biso   1.000  O
  H53      1.0000 0.41547  0.00650  0.72876  Biso   1.000  H
  C49      1.0000 0.26607  0.45666  0.56982  Biso   1.000  C
  C50      1.0000 0.17110  0.62751  0.53252  Biso   1.000  C
  H54      1.0000 0.25326  0.61851  0.47209  Biso   1.000  H
  H55      1.0000 0.30537  0.81006  0.74599  Biso   1.000  H
  C51      1.0000 0.28207  0.01410  0.75731  Biso   1.000  C
  C52      1.0000 0.45145  0.03699  0.90110  Biso   1.000  C
  C53      1.0000 0.21426  0.35839  0.50939  Biso   1.000  C
  H56      1.0000 0.26698  0.44557  0.64332  Biso   1.000  H
  O41      1.0000 0.33309  0.43417  0.56607  Biso   1.000  O
  O42      1.0000 0.12726  0.53034  0.47028  Biso   1.000  O
  H57      1.0000 0.16508  0.61701  0.60282  Biso   1.000  H
  C54      1.0000 0.14527  0.76507  0.49577  Biso   1.000  C
  H58      1.0000 0.29378  0.00240  0.83080  Biso   1.000  H
  H59      1.0000 0.22620  0.00040  0.72181  Biso   1.000  H
  O43      1.0000 0.30006  0.14736  0.74342  Biso   1.000  O
  H60      1.0000 0.45276  0.11417  0.85067  Biso   1.000  H
  C55      1.0000 0.52407  0.01550  0.97057  Biso   1.000  C
  O44      1.0000 0.40564  0.08447  0.94556  Biso   1.000  O
  C56      1.0000 0.14099  0.39688  0.50390  Biso   1.000  C
  H61      1.0000 0.21807  0.36189  0.43902  Biso   1.000  H
  O45      1.0000 0.22968  0.22583  0.54676  Biso   1.000  O
  H62      1.0000 0.17218  0.83905  0.54787  Biso   1.000  H
  H63      1.0000 0.08936  0.76997  0.48410  Biso   1.000  H
  O46      1.0000 0.15860  0.79486  0.41311  Biso   1.000  O
  O47      1.0000 0.56988  0.96471  0.92528  Biso   1.000  O
  C57      1.0000 0.52064  0.92752  0.05157  Biso   1.000  C
  H64      1.0000 0.54600  0.11357  0.00016  Biso   1.000  H
  C58      1.0000 0.39681  0.99460  0.01378  Biso   1.000  C
  H65      1.0000 0.10198  0.33430  0.45291  Biso   1.000  H
  O48      1.0000 0.13466  0.38668  0.59268  Biso   1.000  O
  H66      1.0000 0.50513  0.82645  0.02308  Biso   1.000  H
  C59      1.0000 0.46621  0.98121  0.09033  Biso   1.000  C
  O49      1.0000 0.58404  0.92132  0.12555  Biso   1.000  O
  H67      1.0000 0.37937  0.89443  0.98175  Biso   1.000  H
  C60      1.0000 0.33983  0.05228  0.04524  Biso   1.000  C
  C61      1.0000 0.07767  0.31641  0.60456  Biso   1.000  C
  O50      1.0000 0.46020  0.88483  0.15903  Biso   1.000  O
  H68      1.0000 0.48183  0.07648  0.12388  Biso   1.000  H
  H69      1.0000 0.33414  0.99200  0.10297  Biso   1.000  H
  H70      1.0000 0.29075  0.04689  0.98877  Biso   1.000  H
  O51      1.0000 0.35512  0.18454  0.07887  Biso   1.000  O
  C62      1.0000 0.10616  0.18344  0.65131  Biso   1.000  C
  H71      1.0000 0.03909  0.29771  0.53620  Biso   1.000  H
  C63      1.0000 0.04716  0.40368  0.66457  Biso   1.000  C
  C64      1.0000 0.47680  0.92922  0.25044  Biso   1.000  C
  C65      1.0000 0.05447  0.11467  0.68868  Biso   1.000  C
  H72      1.0000 0.15287  0.20504  0.71007  Biso   1.000  H
  O52      1.0000 0.12235  0.09687  0.58768  Biso   1.000  O
  H73      1.0000 0.08855  0.43907  0.72640  Biso   1.000  H
  C66      1.0000 0.00719  0.52304  0.61102  Biso   1.000  C
  O53      1.0000 0.99898  0.32700  0.69382  Biso   1.000  O
  C67      1.0000 0.51931  0.81745  0.31185  Biso   1.000  C
  O54      1.0000 0.41793  0.95821  0.27413  Biso   1.000  O
  H74      1.0000 0.50572  0.02389  0.26086  Biso   1.000  H
  C68      1.0000 0.03004  0.21404  0.74877  Biso   1.000  C
  H75      1.0000 0.00896  0.08228  0.63102  Biso   1.000  H
  O55      1.0000 0.08875  0.00440  0.74356  Biso   1.000  O
  H76      1.0000 0.04188  0.58402  0.58656  Biso   1.000  H
  H77      1.0000 0.96429  0.48845  0.54878  Biso   1.000  H
  O56      1.0000 0.98038  0.60402  0.66652  Biso   1.000  O
  H78      1.0000 0.53422  0.85194  0.38604  Biso   1.000  H
  C69      1.0000 0.47452  0.69359  0.30032  Biso   1.000  C
  O57      1.0000 0.58132  0.79286  0.29247  Biso   1.000  O
  C70      1.0000 0.37073  0.84795  0.26614  Biso   1.000  C
  O58      1.0000 0.08798  0.25282  0.82400  Biso   1.000  O
  H79      1.0000 0.98976  0.16965  0.77329  Biso   1.000  H
  H80      1.0000 0.46100  0.65700  0.22703  Biso   1.000  H
  C71      1.0000 0.40783  0.72508  0.31935  Biso   1.000  C
  O59      1.0000 0.51151  0.59162  0.36214  Biso   1.000  O
  H81      1.0000 0.34621  0.81985  0.19425  Biso   1.000  H
  C72      1.0000 0.31682  0.90063  0.30685  Biso   1.000  C
  C73      1.0000 0.08495  0.23553  0.91527  Biso   1.000  C
  O60      1.0000 0.36389  0.61252  0.28851  Biso   1.000  O
  H82      1.0000 0.41958  0.74128  0.39542  Biso   1.000  H
  H83      1.0000 0.28109  0.81735  0.30845  Biso   1.000  H
  H84      1.0000 0.28724  0.98101  0.26205  Biso   1.000  H
  O61      1.0000 0.34803  0.94662  0.39966  Biso   1.000  O
  C74      1.0000 0.14958  0.15765  0.97300  Biso   1.000  C
  H85      1.0000 0.03845  0.17755  0.91319  Biso   1.000  H
  C75      1.0000 0.08327  0.37009  0.96258  Biso   1.000  C
  C76      1.0000 0.33700  0.54554  0.35054  Biso   1.000  C
  H86      1.0000 0.19615  0.21843  0.97557  Biso   1.000  H
  O62      1.0000 0.15317  0.03109  0.93320  Biso   1.000  O
  C77      1.0000 0.14480  0.13656  0.06914  Biso   1.000  C
  H87      1.0000 0.13014  0.42687  0.96758  Biso   1.000  H
  C78      1.0000 0.02087  0.45316  0.91166  Biso   1.000  C
  O63      1.0000 0.07902  0.34520  0.05344  Biso   1.000  O
  C79      1.0000 0.35018  0.39648  0.34263  Biso   1.000  C
  O64      1.0000 0.26610  0.57023  0.33047  Biso   1.000  O
  H88      1.0000 0.36301  0.57993  0.42272  Biso   1.000  H
  C80      1.0000 0.13563  0.27272  0.11235  Biso   1.000  C
  H89      1.0000 0.09991  0.07738  0.06462  Biso   1.000  H
  O65      1.0000 0.20180  0.06708  0.13027  Biso   1.000  O
  H90      1.0000 0.02068  0.54004  0.95480  Biso   1.000  H
  H91      1.0000 0.02526  0.48915  0.84491  Biso   1.000  H
  O66      1.0000 0.95864  0.37839  0.89006  Biso   1.000  O
  C81      1.0000 0.31010  0.35069  0.24447  Biso   1.000  C
  H92      1.0000 0.33141  0.33980  0.39257  Biso   1.000  H
  O67      1.0000 0.42261  0.37569  0.36437  Biso   1.000  O
  C82      1.0000 0.22550  0.53364  0.23704  Biso   1.000  C
  H93      1.0000 0.12454  0.25502  0.17785  Biso   1.000  H
  O68      1.0000 0.19791  0.34460  0.12992  Biso   1.000  O
  C83      1.0000 0.23359  0.38458  0.22363  Biso   1.000  C
  H94      1.0000 0.32873  0.40558  0.19334  Biso   1.000  H
  O69      1.0000 0.31863  0.21034  0.23593  Biso   1.000  O
  H95      1.0000 0.24314  0.59232  0.18723  Biso   1.000  H
  C84      1.0000 0.15162  0.57643  0.22321  Biso   1.000  C
  H96      1.0000 0.21480  0.32580  0.27212  Biso   1.000  H
  H97      1.0000 0.11953  0.55473  0.15014  Biso   1.000  H
  H98      1.0000 0.14980  0.68300  0.23586  Biso   1.000  H
  O70      1.0000 0.12122  0.50525  0.28066  Biso   1.000  O
