data_image0
_cell_length_a       21.125
_cell_length_b       10.212
_cell_length_c       15.215
_cell_angle_alpha    90
_cell_angle_beta     111.47
_cell_angle_gamma    90

_symmetry_space_group_name_H-M    "P 1"
_symmetry_int_tables_number       1

loop_
  _symmetry_equiv_pos_as_xyz
  'x, y, z'

loop_
  _atom_site_label
  _atom_site_occupancy
  _atom_site_fract_x
  _atom_site_fract_y
  _atom_site_fract_z
  _atom_site_thermal_displace_type
  _atom_site_B_iso_or_equiv
  _atom_site_type_symbol
  C1       1.0000 0.60301  0.27135  0.38222  Biso   1.000  C
  C2       1.0000 0.57201  0.28672  0.27629  Biso   1.000  C
  C3       1.0000 0.68149  0.28300  0.42100  Biso   1.000  C
  H1       1.0000 0.58509  0.34900  0.41408  Biso   1.000  H
  O1       1.0000 0.58710  0.14600  0.41111  Biso   1.000  O
  O2       1.0000 0.50068  0.28702  0.24669  Biso   1.000  O
  H2       1.0000 0.58760  0.20300  0.24422  Biso   1.000  H
  C4       1.0000 0.60022  0.40815  0.24450  Biso   1.000  C
  H3       1.0000 0.70060  0.29299  0.49402  Biso   1.000  H
  O3       1.0000 0.70110  0.39728  0.38477  Biso   1.000  O
  O4       1.0000 0.70629  0.17166  0.38992  Biso   1.000  O
  H4       1.0000 0.58299  0.49501  0.27198  Biso   1.000  H
  C5       1.0000 0.67759  0.40354  0.28229  Biso   1.000  C
  O5       1.0000 0.57348  0.40825  0.14450  Biso   1.000  O
  C6       1.0000 0.75551  0.09293  0.46189  Biso   1.000  C
  H5       1.0000 0.69130  0.31199  0.25799  Biso   1.000  H
  C7       1.0000 0.71559  0.51244  0.25531  Biso   1.000  C
  C8       1.0000 0.54632  0.52781  0.09803  Biso   1.000  C
  H6       1.0000 0.74957  0.10595  0.52877  Biso   1.000  H
  C9       1.0000 0.82781  0.12368  0.47093  Biso   1.000  C
  C10      1.0000 0.73639  0.95114  0.43081  Biso   1.000  C
  O6       1.0000 0.69763  0.63856  0.28003  Biso   1.000  O
  O7       1.0000 0.78101  0.46298  0.25799  Biso   1.000  O
  H7       1.0000 0.70462  0.50695  0.17904  Biso   1.000  H
  H8       1.0000 0.77039  0.49501  0.29098  Biso   1.000  H
  H9       1.0000 0.72401  0.59303  0.30503  Biso   1.000  H
  H10      1.0000 0.68602  0.54798  0.18497  Biso   1.000  H
  H11      1.0000 0.54482  0.59900  0.14803  Biso   1.000  H
  C11      1.0000 0.47583  0.50029  0.02422  Biso   1.000  C
  O8       1.0000 0.58840  0.58196  0.05459  Biso   1.000  O
  H12      1.0000 0.83008  0.12103  0.40087  Biso   1.000  H
  C12      1.0000 0.85172  0.25695  0.51493  Biso   1.000  C
  O9       1.0000 0.87430  0.03045  0.53110  Biso   1.000  O
  C13      1.0000 0.78949  0.85801  0.49720  Biso   1.000  C
  H13      1.0000 0.73420  0.93801  0.35913  Biso   1.000  H
  O10      1.0000 0.67212  0.92568  0.43752  Biso   1.000  O
  O11      1.0000 0.43461  0.44095  0.06879  Biso   1.000  O
  H14      1.0000 0.45080  0.59597  0.99103  Biso   1.000  H
  C14      1.0000 0.48109  0.41128  0.94597  Biso   1.000  C
  C15      1.0000 0.59989  0.49726  0.98503  Biso   1.000  C
  H15      1.0000 0.82078  0.33000  0.47100  Biso   1.000  H
  H16      1.0000 0.90421  0.26900  0.52100  Biso   1.000  H
  O12      1.0000 0.84430  0.25597  0.60441  Biso   1.000  O
  C16      1.0000 0.85982  0.89845  0.50003  Biso   1.000  C
  H17      1.0000 0.79098  0.87103  0.56500  Biso   1.000  H
  O13      1.0000 0.77520  0.72620  0.46493  Biso   1.000  O
  H18      1.0000 0.49850  0.31600  0.97627  Biso   1.000  H
  C17      1.0000 0.53120  0.47111  0.90600  Biso   1.000  C
  O14      1.0000 0.41618  0.40501  0.87139  Biso   1.000  O
  H19      1.0000 0.62191  0.39904  0.01900  Biso   1.000  H
  C18      1.0000 0.65253  0.56042  0.95522  Biso   1.000  C
  H20      1.0000 0.90142  0.83999  0.55102  Biso   1.000  H
  O15      1.0000 0.86102  0.88298  0.40708  Biso   1.000  O
  H21      1.0000 0.51188  0.56404  0.86899  Biso   1.000  H
  O16      1.0000 0.53951  0.37701  0.84130  Biso   1.000  O
  O17      1.0000 0.71781  0.56101  0.03298  Biso   1.000  O
  H22      1.0000 0.69971  0.57403  0.01801  Biso   1.000  H
  O18      1.0000 0.63100  0.68498  0.91002  Biso   1.000  O
  H23      1.0000 0.66601  0.49501  0.90798  Biso   1.000  H
  H24      1.0000 0.63800  0.66197  0.93298  Biso   1.000  H
  H25      1.0000 0.65800  0.50803  0.89498  Biso   1.000  H
  C19      1.0000 0.91882  0.82188  0.39812  Biso   1.000  C
  C20      1.0000 0.52103  0.41569  0.74603  Biso   1.000  C
  C21      1.0000 0.89449  0.69046  0.34748  Biso   1.000  C
  H26      1.0000 0.95770  0.80298  0.46931  Biso   1.000  H
  C22      1.0000 0.94749  0.91187  0.34077  Biso   1.000  C
  H27      1.0000 0.49168  0.50597  0.73508  Biso   1.000  H
  C23      1.0000 0.48001  0.30356  0.68310  Biso   1.000  C
  O19      1.0000 0.57732  0.44330  0.72202  Biso   1.000  O
  C24      1.0000 0.94929  0.63210  0.31923  Biso   1.000  C
  H28      1.0000 0.85068  0.71103  0.28617  Biso   1.000  H
  O20      1.0000 0.87802  0.60400  0.40892  Biso   1.000  O
  C25      1.0000 0.98431  0.02928  0.39783  Biso   1.000  C
  H29      1.0000 0.90529  0.94399  0.27749  Biso   1.000  H
  O21      1.0000 0.99569  0.84508  0.31280  Biso   1.000  O
  H30      1.0000 0.46241  0.33304  0.60987  Biso   1.000  H
  C26      1.0000 0.52499  0.18253  0.69786  Biso   1.000  C
  O22      1.0000 0.42078  0.27497  0.70373  Biso   1.000  O
  C27      1.0000 0.62470  0.33862  0.73530  Biso   1.000  C
  C28      1.0000 0.97049  0.73120  0.25849  Biso   1.000  C
  H31      1.0000 0.99301  0.60595  0.37770  Biso   1.000  H
  O23      1.0000 0.92400  0.51547  0.26477  Biso   1.000  O
  H32      1.0000 0.95041  0.08402  0.42298  Biso   1.000  H
  H33      1.0000 0.02701  0.99501  0.45299  Biso   1.000  H
  O24      1.0000 0.00641  0.12505  0.33999  Biso   1.000  O
  H34      1.0000 0.53910  0.14904  0.77202  Biso   1.000  H
  C29      1.0000 0.58890  0.21690  0.68028  Biso   1.000  C
  O25      1.0000 0.49061  0.07863  0.63713  Biso   1.000  O
  H35      1.0000 0.64841  0.31404  0.80959  Biso   1.000  H
  C30      1.0000 0.67851  0.39228  0.70041  Biso   1.000  C
  O26      1.0000 0.91392  0.76126  0.17840  Biso   1.000  O
  H36      1.0000 0.01251  0.69095  0.24281  Biso   1.000  H
  H37      1.0000 0.57690  0.23502  0.60478  Biso   1.000  H
  O27      1.0000 0.63388  0.10791  0.71227  Biso   1.000  O
  H38      1.0000 0.71641  0.31404  0.70803  Biso   1.000  H
  H39      1.0000 0.70112  0.47297  0.74201  Biso   1.000  H
  O28      1.0000 0.64781  0.43038  0.60188  Biso   1.000  O
  C31      1.0000 0.91801  0.73668  0.08871  Biso   1.000  C
  C32      1.0000 0.66210  0.05200  0.64998  Biso   1.000  C
  C33      1.0000 0.85529  0.66089  0.02910  Biso   1.000  C
  H40      1.0000 0.96408  0.68096  0.09647  Biso   1.000  H
  C34      1.0000 0.91832  0.86927  0.03870  Biso   1.000  C
  C35      1.0000 0.65092  0.90266  0.65139  Biso   1.000  C
  H41      1.0000 0.63890  0.08999  0.58119  Biso   1.000  H
  O29      1.0000 0.73110  0.08079  0.67760  Biso   1.000  O
  C36      1.0000 0.85740  0.63964  0.93149  Biso   1.000  C
  H42      1.0000 0.80950  0.71798  0.02041  Biso   1.000  H
  O30      1.0000 0.85180  0.53976  0.07027  Biso   1.000  O
  O31      1.0000 0.92098  0.84107  0.94753  Biso   1.000  O
  H43      1.0000 0.87237  0.92303  0.03157  Biso   1.000  H
  C37      1.0000 0.97979  0.95123  0.08927  Biso   1.000  C
  H44      1.0000 0.66992  0.86105  0.59920  Biso   1.000  H
  C38      1.0000 0.69278  0.84969  0.74879  Biso   1.000  C
  O32      1.0000 0.58299  0.87554  0.62427  Biso   1.000  O
  C39      1.0000 0.77220  0.03633  0.77082  Biso   1.000  C
  C40      1.0000 0.86309  0.77282  0.88559  Biso   1.000  C
  H45      1.0000 0.90021  0.58304  0.93750  Biso   1.000  H
  O33      1.0000 0.79890  0.57256  0.87068  Biso   1.000  O
  H46      1.0000 0.97912  0.03799  0.04901  Biso   1.000  H
  H47      1.0000 0.97618  0.98502  0.15601  Biso   1.000  H
  O34      1.0000 0.04359  0.88200  0.11830  Biso   1.000  O
  H48      1.0000 0.67218  0.89101  0.80027  Biso   1.000  H
  C41      1.0000 0.76658  0.89003  0.77591  Biso   1.000  C
  O35      1.0000 0.68561  0.71103  0.75211  Biso   1.000  O
  H49      1.0000 0.75481  0.08598  0.82337  Biso   1.000  H
  C42      1.0000 0.84300  0.08598  0.79031  Biso   1.000  C
  O36      1.0000 0.80272  0.84234  0.86899  Biso   1.000  O
  H50      1.0000 0.87091  0.75499  0.81969  Biso   1.000  H
  H51      1.0000 0.78603  0.84303  0.72703  Biso   1.000  H
  H52      1.0000 0.87630  0.05905  0.86602  Biso   1.000  H
  H53      1.0000 0.84181  0.19604  0.79300  Biso   1.000  H
  O37      1.0000 0.87341  0.03604  0.73007  Biso   1.000  O
  O38      1.0000 0.41289  0.64600  0.58887  Biso   1.000  O
  C43      1.0000 0.39700  0.77135  0.61783  Biso   1.000  C
  C44      1.0000 0.31850  0.78300  0.57899  Biso   1.000  C
  H54      1.0000 0.41490  0.84900  0.58591  Biso   1.000  H
  C45      1.0000 0.42799  0.78672  0.72370  Biso   1.000  C
  O39      1.0000 0.29372  0.67166  0.61013  Biso   1.000  O
  H55      1.0000 0.29941  0.79299  0.50603  Biso   1.000  H
  O40      1.0000 0.29889  0.89728  0.61522  Biso   1.000  O
  H56      1.0000 0.41241  0.70300  0.75583  Biso   1.000  H
  C46      1.0000 0.39977  0.90815  0.75548  Biso   1.000  C
  O41      1.0000 0.49931  0.78702  0.75329  Biso   1.000  O
  C47      1.0000 0.24448  0.59293  0.53809  Biso   1.000  C
  C48      1.0000 0.32240  0.90354  0.71769  Biso   1.000  C
  H57      1.0000 0.41700  0.99501  0.72801  Biso   1.000  H
  O42      1.0000 0.42651  0.90825  0.85548  Biso   1.000  O
  C49      1.0000 0.26360  0.45114  0.56917  Biso   1.000  C
  C50      1.0000 0.17220  0.62368  0.52913  Biso   1.000  C
  H58      1.0000 0.25042  0.60595  0.47121  Biso   1.000  H
  H59      1.0000 0.30869  0.81199  0.74199  Biso   1.000  H
  C51      1.0000 0.28440  0.01244  0.74467  Biso   1.000  C
  C52      1.0000 0.45369  0.02781  0.90203  Biso   1.000  C
  C53      1.0000 0.21051  0.35801  0.50278  Biso   1.000  C
  H60      1.0000 0.26581  0.43801  0.64093  Biso   1.000  H
  O43      1.0000 0.32789  0.42568  0.56253  Biso   1.000  O
  O44      1.0000 0.12569  0.53045  0.46888  Biso   1.000  O
  H61      1.0000 0.16991  0.62103  0.59911  Biso   1.000  H
  C54      1.0000 0.14829  0.75695  0.48513  Biso   1.000  C
  O45      1.0000 0.21899  0.96298  0.74199  Biso   1.000  O
  H62      1.0000 0.22960  0.99501  0.70901  Biso   1.000  H
  O46      1.0000 0.30243  0.13856  0.72003  Biso   1.000  O
  H63      1.0000 0.29539  0.00695  0.82102  Biso   1.000  H
  H64      1.0000 0.27600  0.09303  0.69502  Biso   1.000  H
  H65      1.0000 0.31402  0.04798  0.81502  Biso   1.000  H
  H66      1.0000 0.45519  0.09900  0.85202  Biso   1.000  H
  C55      1.0000 0.52423  0.00029  0.97583  Biso   1.000  C
  O47      1.0000 0.41159  0.08196  0.94539  Biso   1.000  O
  C56      1.0000 0.14019  0.39845  0.50003  Biso   1.000  C
  H67      1.0000 0.20901  0.37103  0.43498  Biso   1.000  H
  O48      1.0000 0.22481  0.22620  0.53513  Biso   1.000  O
  H68      1.0000 0.17921  0.83000  0.52898  Biso   1.000  H
  H69      1.0000 0.09578  0.76900  0.47898  Biso   1.000  H
  O49      1.0000 0.15569  0.75597  0.39557  Biso   1.000  O
  O50      1.0000 0.56538  0.94095  0.93120  Biso   1.000  O
  C57      1.0000 0.51890  0.91128  0.05401  Biso   1.000  C
  H70      1.0000 0.54921  0.09597  0.00902  Biso   1.000  H
  C58      1.0000 0.40012  0.99726  0.01503  Biso   1.000  C
  H71      1.0000 0.09857  0.33999  0.44897  Biso   1.000  H
  O51      1.0000 0.13902  0.38298  0.59290  Biso   1.000  O
  H72      1.0000 0.50149  0.81600  0.02371  Biso   1.000  H
  C59      1.0000 0.46880  0.97111  0.09399  Biso   1.000  C
  O52      1.0000 0.58381  0.90501  0.12859  Biso   1.000  O
  H73      1.0000 0.37808  0.89904  0.98099  Biso   1.000  H
  C60      1.0000 0.34753  0.06042  0.04483  Biso   1.000  C
  C61      1.0000 0.08117  0.32188  0.60187  Biso   1.000  C
  O53      1.0000 0.46048  0.87701  0.15868  Biso   1.000  O
  H74      1.0000 0.48811  0.06404  0.13099  Biso   1.000  H
  H75      1.0000 0.33403  0.99501  0.09201  Biso   1.000  H
  O54      1.0000 0.28218  0.06101  0.96700  Biso   1.000  O
  H76      1.0000 0.30029  0.07403  0.98197  Biso   1.000  H
  O55      1.0000 0.36901  0.18498  0.09003  Biso   1.000  O
  H77      1.0000 0.36199  0.16197  0.06701  Biso   1.000  H
  H78      1.0000 0.34200  0.00803  0.10500  Biso   1.000  H
  C62      1.0000 0.10550  0.19046  0.65251  Biso   1.000  C
  H79      1.0000 0.04229  0.30298  0.53068  Biso   1.000  H
  C63      1.0000 0.05250  0.41187  0.65922  Biso   1.000  C
  C64      1.0000 0.47898  0.91569  0.25402  Biso   1.000  C
  C65      1.0000 0.05072  0.13210  0.68083  Biso   1.000  C
  H80      1.0000 0.14931  0.21103  0.71381  Biso   1.000  H
  O56      1.0000 0.12199  0.10400  0.59113  Biso   1.000  O
  H81      1.0000 0.09470  0.44399  0.72250  Biso   1.000  H
  C66      1.0000 0.01570  0.52928  0.60222  Biso   1.000  C
  O57      1.0000 0.00430  0.34508  0.68718  Biso   1.000  O
  C67      1.0000 0.51998  0.80356  0.31688  Biso   1.000  C
  O58      1.0000 0.42267  0.94330  0.27797  Biso   1.000  O
  H82      1.0000 0.50831  0.00597  0.26490  Biso   1.000  H
  C68      1.0000 0.02951  0.23120  0.74150  Biso   1.000  C
  H83      1.0000 0.00698  0.10595  0.62228  Biso   1.000  H
  O59      1.0000 0.07599  0.01547  0.73521  Biso   1.000  O
  H84      1.0000 0.04962  0.58402  0.57701  Biso   1.000  H
  H85      1.0000 0.97298  0.49501  0.54699  Biso   1.000  H
  O60      1.0000 0.99358  0.62505  0.65999  Biso   1.000  O
  H86      1.0000 0.53758  0.83304  0.39012  Biso   1.000  H
  C69      1.0000 0.47500  0.68253  0.30212  Biso   1.000  C
  O61      1.0000 0.57922  0.77497  0.29633  Biso   1.000  O
  C70      1.0000 0.37529  0.83862  0.26469  Biso   1.000  C
  O62      1.0000 0.08607  0.26126  0.82158  Biso   1.000  O
  H87      1.0000 0.98749  0.19095  0.75717  Biso   1.000  H
  H88      1.0000 0.46091  0.64904  0.22803  Biso   1.000  H
  C71      1.0000 0.41109  0.71690  0.31971  Biso   1.000  C
  O63      1.0000 0.50940  0.57863  0.36293  Biso   1.000  O
  H89      1.0000 0.35158  0.81404  0.19039  Biso   1.000  H
  C72      1.0000 0.32148  0.89228  0.29958  Biso   1.000  C
  C73      1.0000 0.08198  0.23668  0.91128  Biso   1.000  C
  O64      1.0000 0.36611  0.60791  0.28771  Biso   1.000  O
  H90      1.0000 0.42309  0.73502  0.39520  Biso   1.000  H
  H91      1.0000 0.28360  0.81404  0.29202  Biso   1.000  H
  H92      1.0000 0.29891  0.97297  0.25798  Biso   1.000  H
  O65      1.0000 0.35218  0.93038  0.39810  Biso   1.000  O
  C74      1.0000 0.14470  0.16089  0.97089  Biso   1.000  C
  H93      1.0000 0.03591  0.18096  0.90351  Biso   1.000  H
  C75      1.0000 0.08172  0.36927  0.96128  Biso   1.000  C
  C76      1.0000 0.33790  0.55200  0.35000  Biso   1.000  C
  H94      1.0000 0.19049  0.21798  0.97957  Biso   1.000  H
  O66      1.0000 0.14819  0.03976  0.92971  Biso   1.000  O
  C77      1.0000 0.14260  0.13964  0.06849  Biso   1.000  C
  H95      1.0000 0.12762  0.42303  0.96841  Biso   1.000  H
  C78      1.0000 0.02020  0.45123  0.91071  Biso   1.000  C
  O67      1.0000 0.07903  0.34107  0.05253  Biso   1.000  O
  C79      1.0000 0.34912  0.40266  0.34859  Biso   1.000  C
  O68      1.0000 0.26889  0.58079  0.32239  Biso   1.000  O
  H96      1.0000 0.36109  0.58999  0.41879  Biso   1.000  H
  C80      1.0000 0.13690  0.27282  0.11440  Biso   1.000  C
  H97      1.0000 0.09978  0.08304  0.06249  Biso   1.000  H
  O69      1.0000 0.20109  0.07256  0.12930  Biso   1.000  O
  H98      1.0000 0.02087  0.53799  0.95097  Biso   1.000  H
  H99      1.0000 0.02381  0.48502  0.84397  Biso   1.000  H
  O70      1.0000 0.95640  0.38200  0.88169  Biso   1.000  O
  C81      1.0000 0.30721  0.34969  0.25120  Biso   1.000  C
  H100     1.0000 0.33007  0.36105  0.40078  Biso   1.000  H
  O71      1.0000 0.41700  0.37554  0.37571  Biso   1.000  O
  C82      1.0000 0.22781  0.53633  0.22923  Biso   1.000  C
  H101     1.0000 0.12909  0.25499  0.18029  Biso   1.000  H
  O72      1.0000 0.19732  0.34234  0.13099  Biso   1.000  O
  C83      1.0000 0.23341  0.39003  0.22408  Biso   1.000  C
  H102     1.0000 0.32781  0.39101  0.19971  Biso   1.000  H
  O73      1.0000 0.31438  0.21103  0.24788  Biso   1.000  O
  H103     1.0000 0.24518  0.58598  0.17662  Biso   1.000  H
  C84      1.0000 0.15700  0.58598  0.20967  Biso   1.000  C
  H104     1.0000 0.21403  0.34303  0.27302  Biso   1.000  H
  H105     1.0000 0.12371  0.55905  0.13403  Biso   1.000  H
  H106     1.0000 0.15818  0.69604  0.20699  Biso   1.000  H
  O74      1.0000 0.12658  0.53604  0.26991  Biso   1.000  O
