data_image0
_cell_length_a       18.522
_cell_length_b       18.643
_cell_length_c       19.169
_cell_angle_alpha    87.15
_cell_angle_beta     78.04
_cell_angle_gamma    85.79

_symmetry_space_group_name_H-M    "P 1"
_symmetry_int_tables_number       1

loop_
  _symmetry_equiv_pos_as_xyz
  'x, y, z'

loop_
  _atom_site_label
  _atom_site_occupancy
  _atom_site_fract_x
  _atom_site_fract_y
  _atom_site_fract_z
  _atom_site_thermal_displace_type
  _atom_site_B_iso_or_equiv
  _atom_site_type_symbol
  C1       1.0000 0.27368  0.34263  0.69579  Biso   1.000  C
  C2       1.0000 0.32086  0.29984  0.64713  Biso   1.000  C
  O1       1.0000 0.29178  0.34126  0.76292  Biso   1.000  O
  C3       1.0000 0.21017  0.37521  0.68112  Biso   1.000  C
  C4       1.0000 0.30356  0.29141  0.58043  Biso   1.000  C
  H1       1.0000 0.36360  0.27701  0.65839  Biso   1.000  H
  C5       1.0000 0.30246  0.40124  0.79440  Biso   1.000  C
  C6       1.0000 0.19256  0.36642  0.61549  Biso   1.000  C
  H2       1.0000 0.17877  0.40332  0.71490  Biso   1.000  H
  C7       1.0000 0.35447  0.24362  0.52841  Biso   1.000  C
  C8       1.0000 0.24066  0.32663  0.56400  Biso   1.000  C
  N1       1.0000 0.31344  0.38754  0.86019  Biso   1.000  N
  N2       1.0000 0.30207  0.46462  0.75902  Biso   1.000  N
  O2       1.0000 0.12375  0.38891  0.60183  Biso   1.000  O
  O3       1.0000 0.34127  0.25531  0.46310  Biso   1.000  O
  O4       1.0000 0.40195  0.20201  0.54292  Biso   1.000  O
  H3       1.0000 0.23055  0.32383  0.51870  Biso   1.000  H
  C9       1.0000 0.32506  0.44665  0.88890  Biso   1.000  C
  C10      1.0000 0.31335  0.51793  0.79659  Biso   1.000  C
  C11      1.0000 0.09928  0.45815  0.60268  Biso   1.000  C
  C12      1.0000 0.38910  0.21599  0.40568  Biso   1.000  C
  Cl1      1.0000 0.34262  0.43315  0.97475  Biso   1.000  Cl
  N3       1.0000 0.32569  0.51374  0.86409  Biso   1.000  N
  O5       1.0000 0.31317  0.58596  0.77119  Biso   1.000  O
  N4       1.0000 0.02827  0.46693  0.59922  Biso   1.000  N
  N5       1.0000 0.14507  0.50945  0.60461  Biso   1.000  N
  C13      1.0000 0.36809  0.24483  0.33760  Biso   1.000  C
  H4       1.0000 0.38197  0.16484  0.41198  Biso   1.000  H
  H5       1.0000 0.44057  0.22334  0.40483  Biso   1.000  H
  C14      1.0000 0.30181  0.60174  0.70118  Biso   1.000  C
  C15      1.0000 0.00617  0.53452  0.59692  Biso   1.000  C
  C16      1.0000 0.11269  0.57342  0.60242  Biso   1.000  C
  N6       1.0000 0.37481  0.32270  0.33029  Biso   1.000  N
  H6       1.0000 0.40010  0.22164  0.29731  Biso   1.000  H
  H7       1.0000 0.31749  0.23423  0.33781  Biso   1.000  H
  C17      1.0000 0.35897  0.63144  0.65402  Biso   1.000  C
  C18      1.0000 0.23256  0.59862  0.68603  Biso   1.000  C
  N7       1.0000 0.04339  0.59271  0.59692  Biso   1.000  N
  Cl2      1.0000 0.91294  0.55316  0.59297  Biso   1.000  Cl
  O6       1.0000 0.15209  0.63143  0.60311  Biso   1.000  O
  C19      1.0000 0.31690  0.37304  0.35313  Biso   1.000  C
  C20      1.0000 0.44140  0.35450  0.30441  Biso   1.000  C
  C21      1.0000 0.34811  0.65701  0.58860  Biso   1.000  C
  H8       1.0000 0.40459  0.63423  0.66639  Biso   1.000  H
  C22      1.0000 0.22357  0.62460  0.61960  Biso   1.000  C
  H9       1.0000 0.19378  0.57991  0.71901  Biso   1.000  H
  O7       1.0000 0.25288  0.36013  0.37719  Biso   1.000  O
  C23      1.0000 0.34899  0.44533  0.34251  Biso   1.000  C
  O8       1.0000 0.50027  0.32394  0.28211  Biso   1.000  O
  C24      1.0000 0.42369  0.43319  0.31332  Biso   1.000  C
  C25      1.0000 0.41128  0.68993  0.53871  Biso   1.000  C
  C26      1.0000 0.27950  0.65361  0.57083  Biso   1.000  C
  C27      1.0000 0.31530  0.51093  0.36092  Biso   1.000  C
  C28      1.0000 0.46982  0.49172  0.29779  Biso   1.000  C
  O9       1.0000 0.39112  0.72023  0.48081  Biso   1.000  O
  O10      1.0000 0.47312  0.68831  0.54949  Biso   1.000  O
  H10      1.0000 0.27172  0.67085  0.52638  Biso   1.000  H
  C29      1.0000 0.36058  0.56760  0.34651  Biso   1.000  C
  H11      1.0000 0.26530  0.51713  0.38173  Biso   1.000  H
  H12      1.0000 0.51981  0.48530  0.27741  Biso   1.000  H
  C30      1.0000 0.43589  0.55883  0.31482  Biso   1.000  C
  C31      1.0000 0.44823  0.75221  0.42729  Biso   1.000  C
  C32      1.0000 0.34350  0.64554  0.36129  Biso   1.000  C
  C33      1.0000 0.46851  0.63043  0.31151  Biso   1.000  C
  C34      1.0000 0.41941  0.75223  0.35878  Biso   1.000  C
  H13      1.0000 0.49492  0.72391  0.42303  Biso   1.000  H
  H14      1.0000 0.45509  0.80094  0.43919  Biso   1.000  H
  O11      1.0000 0.28440  0.67514  0.38802  Biso   1.000  O
  N8       1.0000 0.41060  0.67924  0.33941  Biso   1.000  N
  O12      1.0000 0.53190  0.64500  0.28910  Biso   1.000  O
  H15      1.0000 0.37204  0.77961  0.36481  Biso   1.000  H
  H16      1.0000 0.45349  0.77533  0.32052  Biso   1.000  H
  O13      1.0000 0.46804  0.35506  0.71090  Biso   1.000  O
  C35      1.0000 0.53149  0.36963  0.68848  Biso   1.000  C
  N9       1.0000 0.58939  0.32082  0.66063  Biso   1.000  N
  C36      1.0000 0.56404  0.44122  0.68523  Biso   1.000  C
  C37      1.0000 0.58059  0.24782  0.64121  Biso   1.000  C
  C38      1.0000 0.65650  0.35451  0.63870  Biso   1.000  C
  C39      1.0000 0.63935  0.43240  0.65353  Biso   1.000  C
  C40      1.0000 0.53017  0.50833  0.70220  Biso   1.000  C
  C41      1.0000 0.55177  0.24785  0.57270  Biso   1.000  C
  H17      1.0000 0.62795  0.22044  0.63523  Biso   1.000  H
  H18      1.0000 0.54644  0.22473  0.67952  Biso   1.000  H
  O14      1.0000 0.71559  0.32492  0.61202  Biso   1.000  O
  C42      1.0000 0.68468  0.48912  0.63913  Biso   1.000  C
  C43      1.0000 0.57625  0.56681  0.68672  Biso   1.000  C
  H19      1.0000 0.48018  0.51476  0.72263  Biso   1.000  H
  O15      1.0000 0.60887  0.27982  0.51923  Biso   1.000  O
  H20      1.0000 0.50507  0.27614  0.57702  Biso   1.000  H
  H21      1.0000 0.54485  0.19911  0.56080  Biso   1.000  H
  H22      1.0000 0.73469  0.48293  0.61832  Biso   1.000  H
  C44      1.0000 0.65101  0.55473  0.65748  Biso   1.000  C
  C45      1.0000 0.55859  0.64555  0.69563  Biso   1.000  C
  C46      1.0000 0.58866  0.31012  0.46128  Biso   1.000  C
  C47      1.0000 0.68308  0.62702  0.64692  Biso   1.000  C
  N10      1.0000 0.62518  0.67735  0.66970  Biso   1.000  N
  O16      1.0000 0.49967  0.67612  0.71789  Biso   1.000  O
  O17      1.0000 0.52687  0.31175  0.45051  Biso   1.000  O
  C48      1.0000 0.65189  0.34305  0.41139  Biso   1.000  C
  O18      1.0000 0.74707  0.63992  0.62280  Biso   1.000  O
  C49      1.0000 0.63190  0.75522  0.66239  Biso   1.000  C
  C50      1.0000 0.72049  0.34644  0.42922  Biso   1.000  C
  C51      1.0000 0.64096  0.36861  0.34603  Biso   1.000  C
  H23      1.0000 0.59989  0.77842  0.70273  Biso   1.000  H
  H24      1.0000 0.68250  0.76583  0.66223  Biso   1.000  H
  C52      1.0000 0.61090  0.78401  0.59431  Biso   1.000  C
  C53      1.0000 0.77638  0.37540  0.38039  Biso   1.000  C
  H25      1.0000 0.72827  0.32921  0.47361  Biso   1.000  H
  C54      1.0000 0.69819  0.39832  0.29881  Biso   1.000  C
  H26      1.0000 0.59541  0.36583  0.33360  Biso   1.000  H
  O19      1.0000 0.65868  0.74475  0.53689  Biso   1.000  O
  H27      1.0000 0.61797  0.83522  0.58801  Biso   1.000  H
  H28      1.0000 0.55942  0.77671  0.59521  Biso   1.000  H
  O20      1.0000 0.84791  0.36863  0.39688  Biso   1.000  O
  C55      1.0000 0.76737  0.40143  0.31401  Biso   1.000  C
  O21      1.0000 0.68682  0.41410  0.22880  Biso   1.000  O
  C56      1.0000 0.64553  0.75644  0.47158  Biso   1.000  C
  C57      1.0000 0.88730  0.42663  0.39763  Biso   1.000  C
  H29      1.0000 0.80622  0.42009  0.28099  Biso   1.000  H
  C58      1.0000 0.68660  0.48213  0.20340  Biso   1.000  C
  C59      1.0000 0.69638  0.70859  0.41961  Biso   1.000  C
  O22      1.0000 0.59799  0.79804  0.45712  Biso   1.000  O
  N11      1.0000 0.95660  0.40734  0.40312  Biso   1.000  N
  N12      1.0000 0.85492  0.49061  0.39539  Biso   1.000  N
  N13      1.0000 0.67431  0.48631  0.13590  Biso   1.000  N
  N14      1.0000 0.69791  0.53543  0.24102  Biso   1.000  N
  C60      1.0000 0.75928  0.67343  0.43599  Biso   1.000  C
  C61      1.0000 0.67913  0.70022  0.35291  Biso   1.000  C
  C62      1.0000 0.99376  0.46554  0.40312  Biso   1.000  C
  C63      1.0000 0.90072  0.54191  0.39731  Biso   1.000  C
  C64      1.0000 0.67494  0.55341  0.11109  Biso   1.000  C
  C65      1.0000 0.69754  0.59882  0.20559  Biso   1.000  C
  C66      1.0000 0.80739  0.63363  0.38450  Biso   1.000  C
  H30      1.0000 0.76939  0.67622  0.48129  Biso   1.000  H
  C67      1.0000 0.72632  0.65742  0.30420  Biso   1.000  C
  H31      1.0000 0.63641  0.72299  0.34160  Biso   1.000  H
  N15      1.0000 0.97172  0.53312  0.40083  Biso   1.000  N
  Cl3      1.0000 0.08706  0.44690  0.40702  Biso   1.000  Cl
  O23      1.0000 0.87619  0.61109  0.39821  Biso   1.000  O
  Cl4      1.0000 0.65732  0.56690  0.02524  Biso   1.000  Cl
  N16      1.0000 0.68650  0.61251  0.13980  Biso   1.000  N
  O24      1.0000 0.70821  0.65879  0.23713  Biso   1.000  O
  C68      1.0000 0.78982  0.62479  0.31892  Biso   1.000  C
  H32      1.0000 0.82123  0.59673  0.28509  Biso   1.000  H
  O25      1.0000 0.55747  0.30244  0.90139  Biso   1.000  O
  C69      1.0000 0.60825  0.27405  0.92513  Biso   1.000  C
  C70      1.0000 0.66767  0.22493  0.88351  Biso   1.000  C
  O26      1.0000 0.61703  0.28072  0.99140  Biso   1.000  O
  C71      1.0000 0.65773  0.20123  0.81943  Biso   1.000  C
  C72      1.0000 0.73147  0.20345  0.90811  Biso   1.000  C
  C73      1.0000 0.56047  0.32271  0.03873  Biso   1.000  C
  C74      1.0000 0.71267  0.15733  0.78079  Biso   1.000  C
  H33      1.0000 0.61473  0.21473  0.80283  Biso   1.000  H
  C75      1.0000 0.78573  0.16136  0.86670  Biso   1.000  C
  H34      1.0000 0.73736  0.21752  0.95229  Biso   1.000  H
  C76      1.0000 0.57930  0.31508  0.10943  Biso   1.000  C
  H35      1.0000 0.55969  0.37282  0.02262  Biso   1.000  H
  H36      1.0000 0.51228  0.30501  0.04022  Biso   1.000  H
  O27      1.0000 0.70414  0.14313  0.71143  Biso   1.000  O
  C77      1.0000 0.77795  0.13726  0.80203  Biso   1.000  C
  O28      1.0000 0.85393  0.15232  0.88789  Biso   1.000  O
  N17      1.0000 0.58779  0.23871  0.13189  Biso   1.000  N
  H37      1.0000 0.62501  0.33782  0.10820  Biso   1.000  H
  H38      1.0000 0.54059  0.33962  0.14374  Biso   1.000  H
  C78      1.0000 0.69686  0.07621  0.69062  Biso   1.000  C
  H39      1.0000 0.81504  0.10862  0.77413  Biso   1.000  H
  C79      1.0000 0.88834  0.08824  0.89151  Biso   1.000  C
  C80      1.0000 0.65319  0.19578  0.11711  Biso   1.000  C
  C81      1.0000 0.52818  0.19799  0.16354  Biso   1.000  C
  N18      1.0000 0.68718  0.07692  0.62403  Biso   1.000  N
  N19      1.0000 0.70005  0.02043  0.73603  Biso   1.000  N
  N20      1.0000 0.96034  0.09042  0.89541  Biso   1.000  N
  N21      1.0000 0.85262  0.02814  0.89221  Biso   1.000  N
  O29      1.0000 0.71399  0.21557  0.08990  Biso   1.000  O
  C82      1.0000 0.63379  0.12090  0.14000  Biso   1.000  C
  O30      1.0000 0.46517  0.22252  0.18002  Biso   1.000  O
  C83      1.0000 0.55839  0.12222  0.16940  Biso   1.000  C
  C84      1.0000 0.68266  0.01121  0.60402  Biso   1.000  C
  C85      1.0000 0.69360  0.95863  0.70583  Biso   1.000  C
  C86      1.0000 0.99383  0.02725  0.89920  Biso   1.000  C
  C87      1.0000 0.89499  0.96824  0.89632  Biso   1.000  C
  C88      1.0000 0.67689  0.05710  0.13269  Biso   1.000  C
  C89      1.0000 0.52309  0.06070  0.19331  Biso   1.000  C
  Cl5      1.0000 0.66985  0.00693  0.51747  Biso   1.000  Cl
  N22      1.0000 0.68372  0.94945  0.64052  Biso   1.000  N
  O31      1.0000 0.69498  0.89683  0.74510  Biso   1.000  O
  N23      1.0000 0.96628  0.96306  0.89973  Biso   1.000  N
  Cl6      1.0000 0.08713  0.02521  0.90192  Biso   1.000  Cl
  O32      1.0000 0.86586  0.90497  0.90139  Biso   1.000  O
  C90      1.0000 0.64137  0.99560  0.15612  Biso   1.000  C
  H40      1.0000 0.72715  0.05582  0.11301  Biso   1.000  H
  C91      1.0000 0.56699  0.99658  0.18589  Biso   1.000  C
  H41      1.0000 0.47275  0.06193  0.21311  Biso   1.000  H
  C92      1.0000 0.71147  0.89323  0.81292  Biso   1.000  C
  C93      1.0000 0.79339  0.89762  0.89039  Biso   1.000  C
  C94      1.0000 0.67046  0.91928  0.15302  Biso   1.000  C
  C95      1.0000 0.54675  0.91993  0.20121  Biso   1.000  C
  C96      1.0000 0.78039  0.90954  0.82151  Biso   1.000  C
  C97      1.0000 0.65908  0.86506  0.86681  Biso   1.000  C
  C98      1.0000 0.74276  0.87017  0.94663  Biso   1.000  C
  N24      1.0000 0.61070  0.87818  0.18050  Biso   1.000  N
  O33      1.0000 0.73405  0.89580  0.13120  Biso   1.000  O
  O34      1.0000 0.48527  0.89889  0.22853  Biso   1.000  O
  H42      1.0000 0.81561  0.92733  0.78410  Biso   1.000  H
  C99      1.0000 0.67496  0.85356  0.93441  Biso   1.000  C
  H43      1.0000 0.61366  0.85386  0.85811  Biso   1.000  H
  H44      1.0000 0.75388  0.86303  0.99161  Biso   1.000  H
  C100     1.0000 0.61318  0.80019  0.17741  Biso   1.000  C
  C101     1.0000 0.61668  0.82057  0.99071  Biso   1.000  C
  C102     1.0000 0.58996  0.77839  0.11322  Biso   1.000  C
  H45      1.0000 0.66304  0.78040  0.17730  Biso   1.000  H
  H46      1.0000 0.58074  0.78089  0.21951  Biso   1.000  H
  O35      1.0000 0.55739  0.80824  0.98190  Biso   1.000  O
  O36      1.0000 0.64047  0.80762  0.05063  Biso   1.000  O
  H47      1.0000 0.53964  0.79699  0.11333  Biso   1.000  H
  H48      1.0000 0.59185  0.72642  0.11199  Biso   1.000  H
  O37      1.0000 0.29579  0.85693  0.28862  Biso   1.000  O
  C103     1.0000 0.28733  0.84273  0.21920  Biso   1.000  C
  C104     1.0000 0.30313  0.92379  0.30943  Biso   1.000  C
  C105     1.0000 0.34220  0.79882  0.18062  Biso   1.000  C
  C106     1.0000 0.22204  0.86279  0.19801  Biso   1.000  C
  N25      1.0000 0.31281  0.92314  0.37602  Biso   1.000  N
  N26      1.0000 0.29994  0.97963  0.26402  Biso   1.000  N
  C107     1.0000 0.33233  0.77513  0.11648  Biso   1.000  C
  H49      1.0000 0.38521  0.78532  0.19721  Biso   1.000  H
  C108     1.0000 0.21421  0.83869  0.13329  Biso   1.000  C
  H50      1.0000 0.18494  0.89143  0.22592  Biso   1.000  H
  C109     1.0000 0.31733  0.98879  0.39603  Biso   1.000  C
  C110     1.0000 0.30639  0.04142  0.29422  Biso   1.000  C
  C111     1.0000 0.39174  0.72600  0.07492  Biso   1.000  C
  C112     1.0000 0.26853  0.79661  0.09188  Biso   1.000  C
  O38      1.0000 0.14602  0.84768  0.11211  Biso   1.000  O
  Cl7      1.0000 0.33014  0.99313  0.48257  Biso   1.000  Cl
  N27      1.0000 0.31627  0.05060  0.35953  Biso   1.000  N
  O39      1.0000 0.30497  0.10323  0.25489  Biso   1.000  O
  O40      1.0000 0.44253  0.69762  0.09861  Biso   1.000  O
  O41      1.0000 0.38292  0.71928  0.00859  Biso   1.000  O
  H51      1.0000 0.26264  0.78248  0.04770  Biso   1.000  H
  C113     1.0000 0.11166  0.91181  0.10848  Biso   1.000  C
  C114     1.0000 0.28846  0.10683  0.18713  Biso   1.000  C
  C115     1.0000 0.43946  0.67734  0.96132  Biso   1.000  C
  N28      1.0000 0.03967  0.90958  0.10458  Biso   1.000  N
  N29      1.0000 0.14732  0.97191  0.10778  Biso   1.000  N
  C116     1.0000 0.21960  0.09052  0.17848  Biso   1.000  C
  C117     1.0000 0.34092  0.13500  0.13318  Biso   1.000  C
  C118     1.0000 0.42070  0.68492  0.89062  Biso   1.000  C
  H52      1.0000 0.44031  0.62724  0.97738  Biso   1.000  H
  H53      1.0000 0.48766  0.69504  0.95982  Biso   1.000  H
  C119     1.0000 0.00617  0.97281  0.10079  Biso   1.000  C
  C120     1.0000 0.10501  0.03182  0.10368  Biso   1.000  C
  C121     1.0000 0.20661  0.10238  0.10960  Biso   1.000  C
  H54      1.0000 0.18439  0.07272  0.21589  Biso   1.000  H
  C122     1.0000 0.32499  0.14650  0.06558  Biso   1.000  C
  H55      1.0000 0.38628  0.14620  0.14188  Biso   1.000  H
  N30      1.0000 0.41221  0.76135  0.86810  Biso   1.000  N
  H56      1.0000 0.37499  0.66224  0.89179  Biso   1.000  H
  H57      1.0000 0.45940  0.66044  0.85631  Biso   1.000  H
  Cl8      1.0000 0.91287  0.97484  0.09807  Biso   1.000  Cl
  N31      1.0000 0.03370  0.03699  0.10031  Biso   1.000  N
  O42      1.0000 0.13409  0.09509  0.09861  Biso   1.000  O
  C123     1.0000 0.25718  0.12988  0.05341  Biso   1.000  C
  C124     1.0000 0.38332  0.17949  0.00928  Biso   1.000  C
  C125     1.0000 0.34681  0.80422  0.88288  Biso   1.000  C
  C126     1.0000 0.47180  0.80206  0.83651  Biso   1.000  C
  H58      1.0000 0.24612  0.13698  0.00838  Biso   1.000  H
  O43      1.0000 0.35952  0.19243  0.94942  Biso   1.000  O
  O44      1.0000 0.44261  0.19181  0.01809  Biso   1.000  O
  O45      1.0000 0.28601  0.78443  0.91009  Biso   1.000  O
  C127     1.0000 0.36621  0.87916  0.85999  Biso   1.000  C
  O46      1.0000 0.53481  0.77753  0.82002  Biso   1.000  O
  C128     1.0000 0.44161  0.87784  0.83059  Biso   1.000  C
  C129     1.0000 0.40999  0.22167  0.88677  Biso   1.000  C
  C130     1.0000 0.32311  0.94295  0.86730  Biso   1.000  C
  C131     1.0000 0.47691  0.93936  0.80668  Biso   1.000  C
  C132     1.0000 0.38682  0.19986  0.82258  Biso   1.000  C
  H59      1.0000 0.46029  0.20306  0.88672  Biso   1.000  H
  H60      1.0000 0.40810  0.27363  0.88800  Biso   1.000  H
  H61      1.0000 0.27279  0.94424  0.88699  Biso   1.000  H
  C133     1.0000 0.35863  0.00446  0.84387  Biso   1.000  C
  H62      1.0000 0.52719  0.93813  0.78689  Biso   1.000  H
  C134     1.0000 0.43301  0.00342  0.81410  Biso   1.000  C
  N32      1.0000 0.38930  0.12182  0.81949  Biso   1.000  N
  H63      1.0000 0.33690  0.21965  0.82269  Biso   1.000  H
  H64      1.0000 0.41920  0.21911  0.78048  Biso   1.000  H
  C135     1.0000 0.32948  0.08072  0.84702  Biso   1.000  C
  C136     1.0000 0.45319  0.08013  0.79879  Biso   1.000  C
  O47      1.0000 0.26589  0.10425  0.86879  Biso   1.000  O
  O48      1.0000 0.51471  0.10116  0.77152  Biso   1.000  O
  Ne1      1.0000 0.29549  0.48856  0.55530  Biso   1.000  Ne
  He1      1.0000 0.36657  0.47143  0.53292  Biso   1.000  He
  He2      1.0000 0.17401  0.46356  0.45683  Biso   1.000  He
  Ar1      1.0000 0.36671  0.47114  0.53269  Biso   1.000  Ar
  Ne2      1.0000 0.70448  0.51149  0.44471  Biso   1.000  Ne
  He3      1.0000 0.63328  0.52865  0.46714  Biso   1.000  He
  He4      1.0000 0.82283  0.53726  0.54134  Biso   1.000  He
  Ar2      1.0000 0.63329  0.52867  0.46716  Biso   1.000  Ar
  Ne3      1.0000 0.29814  0.96174  0.06193  Biso   1.000  Ne
  He5      1.0000 0.47278  0.95016  0.03410  Biso   1.000  He
  He6      1.0000 0.25550  0.99533  0.99912  Biso   1.000  He
  Ar3      1.0000 0.36765  0.95655  0.04035  Biso   1.000  Ar
  Ne4      1.0000 0.70184  0.03830  0.93808  Biso   1.000  Ne
  He7      1.0000 0.46676  0.05189  0.95549  Biso   1.000  He
  He8      1.0000 0.77404  0.98815  0.01924  Biso   1.000  He
  Ar4      1.0000 0.63237  0.04349  0.95964  Biso   1.000  Ar
