data_image0
_cell_length_a       24.2
_cell_length_b       24.2
_cell_length_c       7.918
_cell_angle_alpha    90
_cell_angle_beta     90
_cell_angle_gamma    90

_symmetry_space_group_name_H-M    "P 1"
_symmetry_int_tables_number       1

loop_
  _symmetry_equiv_pos_as_xyz
  'x, y, z'

loop_
  _atom_site_label
  _atom_site_occupancy
  _atom_site_fract_x
  _atom_site_fract_y
  _atom_site_fract_z
  _atom_site_thermal_displace_type
  _atom_site_B_iso_or_equiv
  _atom_site_type_symbol
  C1       1.0000 0.80851  0.80070  0.12112  Biso   1.000  C
  O1       1.0000 0.81860  0.77318  0.27684  Biso   1.000  O
  O2       1.0000 0.81492  0.85818  0.13476  Biso   1.000  O
  H1       1.0000 0.77000  0.79289  0.08613  Biso   1.000  H
  C2       1.0000 0.84669  0.78128  0.98333  Biso   1.000  C
  C3       1.0000 0.87430  0.78041  0.33834  Biso   1.000  C
  C4       1.0000 0.77062  0.88839  0.21053  Biso   1.000  C
  C5       1.0000 0.90711  0.78760  0.04142  Biso   1.000  C
  O3       1.0000 0.83802  0.72302  0.95479  Biso   1.000  O
  H2       1.0000 0.84021  0.80240  0.87813  Biso   1.000  H
  C6       1.0000 0.91570  0.75888  0.20914  Biso   1.000  C
  C7       1.0000 0.87802  0.75029  0.50366  Biso   1.000  C
  H3       1.0000 0.88120  0.82029  0.35792  Biso   1.000  H
  C8       1.0000 0.78818  0.91649  0.37573  Biso   1.000  C
  H4       1.0000 0.73909  0.86331  0.23226  Biso   1.000  H
  C9       1.0000 0.75372  0.93252  0.08209  Biso   1.000  C
  C10      1.0000 0.75372  0.93248  0.08209  Biso   1.000  C
  O4       1.0000 0.94388  0.76731  0.91488  Biso   1.000  O
  H5       1.0000 0.91459  0.82748  0.05734  Biso   1.000  H
  H6       1.0000 0.91459  0.82752  0.05734  Biso   1.000  H
  H7       1.0000 0.80161  0.71731  0.90465  Biso   1.000  H
  O5       1.0000 0.96950  0.77169  0.27153  Biso   1.000  O
  H8       1.0000 0.91149  0.71851  0.19563  Biso   1.000  H
  H9       1.0000 0.85099  0.76541  0.58159  Biso   1.000  H
  H10      1.0000 0.91479  0.75471  0.55027  Biso   1.000  H
  H11      1.0000 0.87062  0.71140  0.48560  Biso   1.000  H
  C11      1.0000 0.74269  0.95388  0.43748  Biso   1.000  C
  O6       1.0000 0.80339  0.87711  0.50126  Biso   1.000  O
  H12      1.0000 0.82099  0.93971  0.35135  Biso   1.000  H
  O7       1.0000 0.70921  0.96661  0.15143  Biso   1.000  O
  H13      1.0000 0.78599  0.95669  0.06226  Biso   1.000  H
  C12      1.0000 0.73450  0.91149  0.91513  Biso   1.000  C
  H14      1.0000 0.93521  0.72888  0.89063  Biso   1.000  H
  C13      1.0000 0.00500  0.72541  0.29982  Biso   1.000  C
  C14      1.0000 0.72541  0.99500  0.29982  Biso   1.000  C
  O8       1.0000 0.69661  0.92140  0.48156  Biso   1.000  O
  H15      1.0000 0.75562  0.97450  0.53814  Biso   1.000  H
  H16      1.0000 0.77050  0.86351  0.55709  Biso   1.000  H
  O9       1.0000 0.69430  0.86740  0.92624  Biso   1.000  O
  H17      1.0000 0.71818  0.94231  0.85160  Biso   1.000  H
  H18      1.0000 0.76661  0.89818  0.85135  Biso   1.000  H
  H19      1.0000 0.98260  0.69401  0.34125  Biso   1.000  H
  C15      1.0000 0.04612  0.74269  0.43748  Biso   1.000  C
  O10      1.0000 0.03339  0.70921  0.15143  Biso   1.000  O
  O11      1.0000 0.77169  0.03050  0.27153  Biso   1.000  O
  H20      1.0000 0.69401  0.01740  0.34125  Biso   1.000  H
  H21      1.0000 0.67149  0.94302  0.55128  Biso   1.000  H
  H22      1.0000 0.66570  0.87740  0.00859  Biso   1.000  H
  C16      1.0000 0.08351  0.78818  0.37573  Biso   1.000  C
  O12      1.0000 0.07860  0.69661  0.48156  Biso   1.000  O
  H23      1.0000 0.02550  0.75562  0.53814  Biso   1.000  H
  C17      1.0000 0.06748  0.75372  0.08209  Biso   1.000  C
  C18      1.0000 0.06752  0.75372  0.08209  Biso   1.000  C
  C19      1.0000 0.75888  0.08430  0.20914  Biso   1.000  C
  C20      1.0000 0.11161  0.77062  0.21053  Biso   1.000  C
  O13      1.0000 0.12289  0.80339  0.50126  Biso   1.000  O
  H24      1.0000 0.06029  0.82099  0.35135  Biso   1.000  H
  H25      1.0000 0.05698  0.67149  0.55128  Biso   1.000  H
  C21      1.0000 0.08851  0.73450  0.91513  Biso   1.000  C
  H26      1.0000 0.04331  0.78599  0.06226  Biso   1.000  H
  C22      1.0000 0.78041  0.12570  0.33834  Biso   1.000  C
  C23      1.0000 0.78760  0.09289  0.04142  Biso   1.000  C
  H27      1.0000 0.71851  0.08851  0.19563  Biso   1.000  H
  O14      1.0000 0.14182  0.81492  0.13476  Biso   1.000  O
  H28      1.0000 0.13669  0.73909  0.23226  Biso   1.000  H
  H29      1.0000 0.13649  0.77050  0.55709  Biso   1.000  H
  O15      1.0000 0.13260  0.69430  0.92624  Biso   1.000  O
  H30      1.0000 0.05769  0.71818  0.85160  Biso   1.000  H
  H31      1.0000 0.10182  0.76661  0.85135  Biso   1.000  H
  O16      1.0000 0.77318  0.18140  0.27684  Biso   1.000  O
  C24      1.0000 0.75029  0.12198  0.50366  Biso   1.000  C
  H32      1.0000 0.82029  0.11880  0.35792  Biso   1.000  H
  C25      1.0000 0.78128  0.15331  0.98333  Biso   1.000  C
  O17      1.0000 0.76731  0.05612  0.91488  Biso   1.000  O
  H33      1.0000 0.82748  0.08541  0.05734  Biso   1.000  H
  H34      1.0000 0.82752  0.08541  0.05734  Biso   1.000  H
  C26      1.0000 0.19930  0.80851  0.12112  Biso   1.000  C
  H35      1.0000 0.12260  0.66570  0.00859  Biso   1.000  H
  C27      1.0000 0.80070  0.19149  0.12112  Biso   1.000  C
  H36      1.0000 0.76541  0.14901  0.58159  Biso   1.000  H
  H37      1.0000 0.75471  0.08521  0.55027  Biso   1.000  H
  H38      1.0000 0.71140  0.12938  0.48560  Biso   1.000  H
  O18      1.0000 0.72302  0.16198  0.95479  Biso   1.000  O
  H39      1.0000 0.80240  0.15979  0.87813  Biso   1.000  H
  H40      1.0000 0.72888  0.06479  0.89063  Biso   1.000  H
  C28      1.0000 0.21872  0.84669  0.98333  Biso   1.000  C
  O19      1.0000 0.22682  0.81860  0.27684  Biso   1.000  O
  H41      1.0000 0.20711  0.77000  0.08613  Biso   1.000  H
  O20      1.0000 0.85818  0.18508  0.13476  Biso   1.000  O
  H42      1.0000 0.79289  0.23000  0.08613  Biso   1.000  H
  H43      1.0000 0.71731  0.19839  0.90465  Biso   1.000  H
  O21      1.0000 0.27698  0.83802  0.95479  Biso   1.000  O
  H44      1.0000 0.19760  0.84021  0.87813  Biso   1.000  H
  C29      1.0000 0.21240  0.90711  0.04142  Biso   1.000  C
  C30      1.0000 0.21959  0.87430  0.33834  Biso   1.000  C
  C31      1.0000 0.88839  0.22938  0.21053  Biso   1.000  C
  H45      1.0000 0.28269  0.80161  0.90465  Biso   1.000  H
  O22      1.0000 0.23269  0.94388  0.91488  Biso   1.000  O
  C32      1.0000 0.24112  0.91570  0.20914  Biso   1.000  C
  H46      1.0000 0.17252  0.91459  0.05734  Biso   1.000  H
  C33      1.0000 0.24971  0.87802  0.50366  Biso   1.000  C
  H47      1.0000 0.17971  0.88120  0.35792  Biso   1.000  H
  C34      1.0000 0.91649  0.21182  0.37573  Biso   1.000  C
  C35      1.0000 0.93252  0.24628  0.08209  Biso   1.000  C
  H48      1.0000 0.86331  0.26091  0.23226  Biso   1.000  H
  C36      1.0000 0.93248  0.24628  0.08209  Biso   1.000  C
  H49      1.0000 0.27112  0.93521  0.89063  Biso   1.000  H
  O23      1.0000 0.22831  0.96950  0.27153  Biso   1.000  O
  H50      1.0000 0.28149  0.91149  0.19563  Biso   1.000  H
  H51      1.0000 0.23459  0.85099  0.58159  Biso   1.000  H
  H52      1.0000 0.24529  0.91479  0.55027  Biso   1.000  H
  H53      1.0000 0.28860  0.87062  0.48560  Biso   1.000  H
  C37      1.0000 0.95388  0.25731  0.43748  Biso   1.000  C
  O24      1.0000 0.87711  0.19661  0.50126  Biso   1.000  O
  H54      1.0000 0.93971  0.17901  0.35135  Biso   1.000  H
  C38      1.0000 0.91149  0.26550  0.91513  Biso   1.000  C
  O25      1.0000 0.96661  0.29079  0.15143  Biso   1.000  O
  H55      1.0000 0.95669  0.21401  0.06226  Biso   1.000  H
  C39      1.0000 0.27459  0.00500  0.29982  Biso   1.000  C
  C40      1.0000 0.99500  0.27459  0.29982  Biso   1.000  C
  O26      1.0000 0.92140  0.30339  0.48156  Biso   1.000  O
  H56      1.0000 0.97450  0.24438  0.53814  Biso   1.000  H
  H57      1.0000 0.86351  0.22950  0.55709  Biso   1.000  H
  O27      1.0000 0.86740  0.30570  0.92624  Biso   1.000  O
  H58      1.0000 0.94231  0.28182  0.85160  Biso   1.000  H
  H59      1.0000 0.89818  0.23339  0.85135  Biso   1.000  H
  H60      1.0000 0.30599  0.98260  0.34125  Biso   1.000  H
  C41      1.0000 0.25731  0.04612  0.43748  Biso   1.000  C
  O28      1.0000 0.29079  0.03339  0.15143  Biso   1.000  O
  O29      1.0000 0.03050  0.22831  0.27153  Biso   1.000  O
  H61      1.0000 0.01740  0.30599  0.34125  Biso   1.000  H
  H62      1.0000 0.94302  0.32851  0.55128  Biso   1.000  H
  H63      1.0000 0.87740  0.33430  0.00859  Biso   1.000  H
  C42      1.0000 0.21182  0.08351  0.37573  Biso   1.000  C
  O30      1.0000 0.30339  0.07860  0.48156  Biso   1.000  O
  H64      1.0000 0.24438  0.02550  0.53814  Biso   1.000  H
  C43      1.0000 0.24628  0.06748  0.08209  Biso   1.000  C
  C44      1.0000 0.08430  0.24112  0.20914  Biso   1.000  C
  C45      1.0000 0.22938  0.11161  0.21053  Biso   1.000  C
  O31      1.0000 0.19661  0.12289  0.50126  Biso   1.000  O
  H65      1.0000 0.17901  0.06029  0.35135  Biso   1.000  H
  H66      1.0000 0.32851  0.05698  0.55128  Biso   1.000  H
  C46      1.0000 0.26550  0.08851  0.91513  Biso   1.000  C
  H67      1.0000 0.21401  0.04331  0.06226  Biso   1.000  H
  C47      1.0000 0.09289  0.21240  0.04142  Biso   1.000  C
  C48      1.0000 0.12570  0.21959  0.33834  Biso   1.000  C
  H68      1.0000 0.08851  0.28149  0.19563  Biso   1.000  H
  O32      1.0000 0.18508  0.14182  0.13476  Biso   1.000  O
  H69      1.0000 0.26091  0.13669  0.23226  Biso   1.000  H
  H70      1.0000 0.22950  0.13649  0.55709  Biso   1.000  H
  O33      1.0000 0.30570  0.13260  0.92624  Biso   1.000  O
  H71      1.0000 0.28182  0.05769  0.85160  Biso   1.000  H
  H72      1.0000 0.23339  0.10182  0.85135  Biso   1.000  H
  C49      1.0000 0.15331  0.21872  0.98333  Biso   1.000  C
  O34      1.0000 0.05612  0.23269  0.91488  Biso   1.000  O
  H73      1.0000 0.08541  0.17252  0.05734  Biso   1.000  H
  O35      1.0000 0.18140  0.22682  0.27684  Biso   1.000  O
  C50      1.0000 0.12198  0.24971  0.50366  Biso   1.000  C
  H74      1.0000 0.11880  0.17971  0.35792  Biso   1.000  H
  C51      1.0000 0.19149  0.19930  0.12112  Biso   1.000  C
  H75      1.0000 0.33430  0.12260  0.00859  Biso   1.000  H
  O36      1.0000 0.16198  0.27698  0.95479  Biso   1.000  O
  H76      1.0000 0.15979  0.19760  0.87813  Biso   1.000  H
  H77      1.0000 0.06479  0.27112  0.89063  Biso   1.000  H
  H78      1.0000 0.14901  0.23459  0.58159  Biso   1.000  H
  H79      1.0000 0.08521  0.24529  0.55027  Biso   1.000  H
  H80      1.0000 0.12938  0.28860  0.48560  Biso   1.000  H
  H81      1.0000 0.23000  0.20711  0.08613  Biso   1.000  H
  H82      1.0000 0.19839  0.28269  0.90465  Biso   1.000  H
  O37      1.0000 0.78570  0.66339  0.33190  Biso   1.000  O
  C52      1.0000 0.72810  0.65810  0.33986  Biso   1.000  C
  H83      1.0000 0.79521  0.69318  0.25499  Biso   1.000  H
  C53      1.0000 0.70029  0.65682  0.17088  Biso   1.000  C
  H84      1.0000 0.71318  0.68909  0.40515  Biso   1.000  H
  H85      1.0000 0.71909  0.62401  0.40061  Biso   1.000  H
  C54      1.0000 0.72698  0.61888  0.03978  Biso   1.000  C
  O38      1.0000 0.69831  0.71269  0.10836  Biso   1.000  O
  H86      1.0000 0.66182  0.64421  0.18818  Biso   1.000  H
  O39      1.0000 0.72372  0.56409  0.10508  Biso   1.000  O
  H87      1.0000 0.76612  0.62938  0.02235  Biso   1.000  H
  C55      1.0000 0.69529  0.62302  0.87396  Biso   1.000  C
  C56      1.0000 0.66669  0.71839  0.95858  Biso   1.000  C
  C57      1.0000 0.77339  0.53682  0.13185  Biso   1.000  C
  C58      1.0000 0.69008  0.68302  0.81776  Biso   1.000  C
  O40      1.0000 0.71959  0.58930  0.74665  Biso   1.000  O
  H88      1.0000 0.65752  0.60888  0.89454  Biso   1.000  H
  O41      1.0000 0.61128  0.70339  0.98106  Biso   1.000  O
  H89      1.0000 0.66802  0.75760  0.92258  Biso   1.000  H
  C59      1.0000 0.76430  0.49430  0.27254  Biso   1.000  C
  O42      1.0000 0.79360  0.51008  0.98661  Biso   1.000  O
  H90      1.0000 0.80128  0.56401  0.17037  Biso   1.000  H
  O43      1.0000 0.74372  0.70289  0.76964  Biso   1.000  O
  H91      1.0000 0.66508  0.68492  0.71887  Biso   1.000  H
  H92      1.0000 0.75901  0.59562  0.74387  Biso   1.000  H
  C60      1.0000 0.57541  0.74521  0.04812  Biso   1.000  C
  C61      1.0000 0.72430  0.45140  0.21344  Biso   1.000  C
  O44      1.0000 0.81450  0.46748  0.31460  Biso   1.000  O
  H93      1.0000 0.74930  0.51302  0.37371  Biso   1.000  H
  C62      1.0000 0.75620  0.46880  0.91665  Biso   1.000  C
  H94      1.0000 0.74050  0.74062  0.72834  Biso   1.000  H
  C63      1.0000 0.54860  0.72430  0.21344  Biso   1.000  C
  C64      1.0000 0.53120  0.75620  0.91665  Biso   1.000  C
  H95      1.0000 0.59661  0.77938  0.07035  Biso   1.000  H
  C65      1.0000 0.74521  0.42459  0.04812  Biso   1.000  C
  O45      1.0000 0.71430  0.41041  0.34251  Biso   1.000  O
  H96      1.0000 0.68880  0.47008  0.18856  Biso   1.000  H
  H97      1.0000 0.83851  0.49318  0.37573  Biso   1.000  H
  C66      1.0000 0.78240  0.44661  0.76484  Biso   1.000  C
  H98      1.0000 0.72099  0.48669  0.88545  Biso   1.000  H
  C67      1.0000 0.50570  0.76430  0.27254  Biso   1.000  C
  O46      1.0000 0.58959  0.71430  0.34251  Biso   1.000  O
  H99      1.0000 0.52992  0.68880  0.18856  Biso   1.000  H
  O47      1.0000 0.48992  0.79360  0.98661  Biso   1.000  O
  C68      1.0000 0.55339  0.78240  0.76484  Biso   1.000  C
  H100     1.0000 0.51331  0.72099  0.88545  Biso   1.000  H
  O48      1.0000 0.70339  0.38872  0.98106  Biso   1.000  O
  H101     1.0000 0.77938  0.40339  0.07035  Biso   1.000  H
  H102     1.0000 0.74521  0.40959  0.42043  Biso   1.000  H
  H103     1.0000 0.78860  0.47620  0.68464  Biso   1.000  H
  H104     1.0000 0.75839  0.41901  0.71432  Biso   1.000  H
  H105     1.0000 0.81740  0.42971  0.79452  Biso   1.000  H
  C69      1.0000 0.46318  0.77339  0.13185  Biso   1.000  C
  O49      1.0000 0.53252  0.81450  0.31460  Biso   1.000  O
  H106     1.0000 0.48698  0.74930  0.37371  Biso   1.000  H
  H107     1.0000 0.59041  0.74521  0.42043  Biso   1.000  H
  H108     1.0000 0.52380  0.78860  0.68464  Biso   1.000  H
  H109     1.0000 0.58099  0.75839  0.71432  Biso   1.000  H
  H110     1.0000 0.57029  0.81740  0.79452  Biso   1.000  H
  C70      1.0000 0.71839  0.33331  0.95858  Biso   1.000  C
  O50      1.0000 0.43591  0.72372  0.10508  Biso   1.000  O
  H111     1.0000 0.43599  0.80128  0.17037  Biso   1.000  H
  H112     1.0000 0.50682  0.83851  0.37573  Biso   1.000  H
  O51      1.0000 0.71269  0.30169  0.10836  Biso   1.000  O
  C71      1.0000 0.68302  0.30992  0.81776  Biso   1.000  C
  H113     1.0000 0.75760  0.33198  0.92258  Biso   1.000  H
  C72      1.0000 0.38112  0.72698  0.03978  Biso   1.000  C
  C73      1.0000 0.65682  0.29971  0.17088  Biso   1.000  C
  C74      1.0000 0.62302  0.30471  0.87396  Biso   1.000  C
  O52      1.0000 0.70289  0.25628  0.76964  Biso   1.000  O
  H114     1.0000 0.68492  0.33492  0.71887  Biso   1.000  H
  C75      1.0000 0.34318  0.70029  0.17088  Biso   1.000  C
  C76      1.0000 0.37698  0.69529  0.87396  Biso   1.000  C
  H115     1.0000 0.37062  0.76612  0.02235  Biso   1.000  H
  C77      1.0000 0.61888  0.27302  0.03978  Biso   1.000  C
  C78      1.0000 0.65810  0.27190  0.33986  Biso   1.000  C
  H116     1.0000 0.64421  0.33818  0.18818  Biso   1.000  H
  O53      1.0000 0.58930  0.28041  0.74665  Biso   1.000  O
  H117     1.0000 0.60888  0.34248  0.89454  Biso   1.000  H
  H118     1.0000 0.74062  0.25950  0.72834  Biso   1.000  H
  O54      1.0000 0.28731  0.69831  0.10836  Biso   1.000  O
  C79      1.0000 0.34190  0.72810  0.33986  Biso   1.000  C
  H119     1.0000 0.35579  0.66182  0.18818  Biso   1.000  H
  C80      1.0000 0.31698  0.69008  0.81776  Biso   1.000  C
  O55      1.0000 0.41070  0.71959  0.74665  Biso   1.000  O
  H120     1.0000 0.39112  0.65752  0.89454  Biso   1.000  H
  O56      1.0000 0.56409  0.27628  0.10508  Biso   1.000  O
  H121     1.0000 0.62938  0.23388  0.02235  Biso   1.000  H
  O57      1.0000 0.66339  0.21430  0.33190  Biso   1.000  O
  H122     1.0000 0.68909  0.28682  0.40515  Biso   1.000  H
  H123     1.0000 0.62401  0.28091  0.40061  Biso   1.000  H
  H124     1.0000 0.59562  0.24099  0.74387  Biso   1.000  H
  C81      1.0000 0.28161  0.66669  0.95858  Biso   1.000  C
  O58      1.0000 0.33661  0.78570  0.33190  Biso   1.000  O
  H125     1.0000 0.31091  0.71318  0.40515  Biso   1.000  H
  H126     1.0000 0.37599  0.71909  0.40061  Biso   1.000  H
  O59      1.0000 0.29711  0.74372  0.76964  Biso   1.000  O
  H127     1.0000 0.31508  0.66508  0.71887  Biso   1.000  H
  H128     1.0000 0.40438  0.75901  0.74387  Biso   1.000  H
  C82      1.0000 0.53682  0.22661  0.13185  Biso   1.000  C
  H129     1.0000 0.69318  0.20479  0.25499  Biso   1.000  H
  O60      1.0000 0.29661  0.61128  0.98106  Biso   1.000  O
  H130     1.0000 0.24240  0.66802  0.92258  Biso   1.000  H
  H131     1.0000 0.30682  0.79521  0.25499  Biso   1.000  H
  H132     1.0000 0.25938  0.74050  0.72834  Biso   1.000  H
  C83      1.0000 0.49430  0.23570  0.27254  Biso   1.000  C
  O61      1.0000 0.51008  0.20640  0.98661  Biso   1.000  O
  H133     1.0000 0.56401  0.19872  0.17037  Biso   1.000  H
  C84      1.0000 0.25479  0.57541  0.04812  Biso   1.000  C
  C85      1.0000 0.45140  0.27570  0.21344  Biso   1.000  C
  O62      1.0000 0.46748  0.18550  0.31460  Biso   1.000  O
  H134     1.0000 0.51302  0.25070  0.37371  Biso   1.000  H
  C86      1.0000 0.46880  0.24380  0.91665  Biso   1.000  C
  C87      1.0000 0.27570  0.54860  0.21344  Biso   1.000  C
  C88      1.0000 0.24380  0.53120  0.91665  Biso   1.000  C
  H135     1.0000 0.22062  0.59661  0.07035  Biso   1.000  H
  C89      1.0000 0.42459  0.25479  0.04812  Biso   1.000  C
  O63      1.0000 0.41041  0.28570  0.34251  Biso   1.000  O
  H136     1.0000 0.47008  0.31120  0.18856  Biso   1.000  H
  H137     1.0000 0.49318  0.16149  0.37573  Biso   1.000  H
  C90      1.0000 0.44661  0.21760  0.76484  Biso   1.000  C
  H138     1.0000 0.48669  0.27901  0.88545  Biso   1.000  H
  C91      1.0000 0.23570  0.50570  0.27254  Biso   1.000  C
  O64      1.0000 0.28570  0.58959  0.34251  Biso   1.000  O
  H139     1.0000 0.31120  0.52992  0.18856  Biso   1.000  H
  O65      1.0000 0.20640  0.48992  0.98661  Biso   1.000  O
  C92      1.0000 0.21760  0.55339  0.76484  Biso   1.000  C
  H140     1.0000 0.27901  0.51331  0.88545  Biso   1.000  H
  O66      1.0000 0.38872  0.29661  0.98106  Biso   1.000  O
  H141     1.0000 0.40339  0.22062  0.07035  Biso   1.000  H
  H142     1.0000 0.40959  0.25479  0.42043  Biso   1.000  H
  H143     1.0000 0.47620  0.21140  0.68464  Biso   1.000  H
  H144     1.0000 0.41901  0.24161  0.71432  Biso   1.000  H
  H145     1.0000 0.42971  0.18260  0.79452  Biso   1.000  H
  C93      1.0000 0.22661  0.46318  0.13185  Biso   1.000  C
  O67      1.0000 0.18550  0.53248  0.31460  Biso   1.000  O
  H146     1.0000 0.25070  0.48698  0.37371  Biso   1.000  H
  H147     1.0000 0.25479  0.59041  0.42043  Biso   1.000  H
  H148     1.0000 0.21140  0.52380  0.68464  Biso   1.000  H
  H149     1.0000 0.24161  0.58099  0.71432  Biso   1.000  H
  H150     1.0000 0.18260  0.57029  0.79452  Biso   1.000  H
  C94      1.0000 0.33331  0.28161  0.95858  Biso   1.000  C
  O68      1.0000 0.27628  0.43591  0.10508  Biso   1.000  O
  H151     1.0000 0.19872  0.43599  0.17037  Biso   1.000  H
  H152     1.0000 0.16149  0.50682  0.37573  Biso   1.000  H
  O69      1.0000 0.30169  0.28731  0.10836  Biso   1.000  O
  C95      1.0000 0.30992  0.31698  0.81776  Biso   1.000  C
  H153     1.0000 0.33198  0.24240  0.92258  Biso   1.000  H
  C96      1.0000 0.27302  0.38112  0.03978  Biso   1.000  C
  C97      1.0000 0.29971  0.34318  0.17088  Biso   1.000  C
  C98      1.0000 0.30471  0.37698  0.87396  Biso   1.000  C
  O70      1.0000 0.25628  0.29711  0.76964  Biso   1.000  O
  H154     1.0000 0.33492  0.31508  0.71887  Biso   1.000  H
  H155     1.0000 0.23388  0.37062  0.02235  Biso   1.000  H
  C99      1.0000 0.27190  0.34190  0.33986  Biso   1.000  C
  H156     1.0000 0.33818  0.35579  0.18818  Biso   1.000  H
  O71      1.0000 0.28041  0.41070  0.74665  Biso   1.000  O
  H157     1.0000 0.34248  0.39112  0.89454  Biso   1.000  H
  H158     1.0000 0.25950  0.25938  0.72834  Biso   1.000  H
  O72      1.0000 0.21430  0.33661  0.33190  Biso   1.000  O
  H159     1.0000 0.28682  0.31091  0.40515  Biso   1.000  H
  H160     1.0000 0.28091  0.37599  0.40061  Biso   1.000  H
  H161     1.0000 0.24099  0.40438  0.74387  Biso   1.000  H
  H162     1.0000 0.20479  0.30682  0.25499  Biso   1.000  H
