data_image0
_cell_length_a       23.585
_cell_length_b       21.28
_cell_length_c       13.398
_cell_angle_alpha    90
_cell_angle_beta     101
_cell_angle_gamma    90

_symmetry_space_group_name_H-M    "P 1"
_symmetry_int_tables_number       1

loop_
  _symmetry_equiv_pos_as_xyz
  'x, y, z'

loop_
  _atom_site_label
  _atom_site_occupancy
  _atom_site_fract_x
  _atom_site_fract_y
  _atom_site_fract_z
  _atom_site_thermal_displace_type
  _atom_site_B_iso_or_equiv
  _atom_site_type_symbol
  C1       1.0000 0.40884  0.41988  0.54312  Biso   1.000  C
  C2       1.0000 0.41423  0.39070  0.43994  Biso   1.000  C
  N1       1.0000 0.34911  0.43976  0.52761  Biso   1.000  N
  N2       1.0000 0.42424  0.36852  0.61360  Biso   1.000  N
  H1       1.0000 0.43519  0.45550  0.56015  Biso   1.000  H
  N3       1.0000 0.35833  0.40329  0.37637  Biso   1.000  N
  N4       1.0000 0.42656  0.32514  0.46374  Biso   1.000  N
  H2       1.0000 0.44540  0.41043  0.41219  Biso   1.000  H
  C3       1.0000 0.32298  0.43642  0.42732  Biso   1.000  C
  C4       1.0000 0.32803  0.48186  0.59794  Biso   1.000  C
  C5       1.0000 0.43780  0.31494  0.56661  Biso   1.000  C
  C6       1.0000 0.42465  0.37138  0.72142  Biso   1.000  C
  C7       1.0000 0.34401  0.38971  0.26970  Biso   1.000  C
  C8       1.0000 0.44675  0.28191  0.39455  Biso   1.000  C
  O1       1.0000 0.27631  0.45921  0.38877  Biso   1.000  O
  H3       1.0000 0.36011  0.50710  0.63261  Biso   1.000  H
  H4       1.0000 0.29992  0.51020  0.55924  Biso   1.000  H
  N5       1.0000 0.30174  0.45038  0.67299  Biso   1.000  N
  O2       1.0000 0.45713  0.26701  0.60957  Biso   1.000  O
  H5       1.0000 0.44212  0.41071  0.74803  Biso   1.000  H
  H6       1.0000 0.44842  0.33741  0.75495  Biso   1.000  H
  N6       1.0000 0.36740  0.36668  0.74636  Biso   1.000  N
  N7       1.0000 0.32799  0.32462  0.24514  Biso   1.000  N
  H7       1.0000 0.31220  0.41659  0.23913  Biso   1.000  H
  H8       1.0000 0.37691  0.40019  0.23921  Biso   1.000  H
  N8       1.0000 0.40110  0.24981  0.32695  Biso   1.000  N
  H9       1.0000 0.47159  0.25089  0.43401  Biso   1.000  H
  H10      1.0000 0.46982  0.30503  0.35432  Biso   1.000  H
  C9       1.0000 0.24353  0.44093  0.66173  Biso   1.000  C
  C10      1.0000 0.33394  0.42129  0.76354  Biso   1.000  C
  C11      1.0000 0.35040  0.31349  0.79061  Biso   1.000  C
  C12      1.0000 0.27363  0.30860  0.19579  Biso   1.000  C
  C13      1.0000 0.36988  0.27608  0.23381  Biso   1.000  C
  C14      1.0000 0.38738  0.18783  0.33889  Biso   1.000  C
  N9       1.0000 0.23362  0.40545  0.74119  Biso   1.000  N
  O3       1.0000 0.20630  0.46151  0.59284  Biso   1.000  O
  H11      1.0000 0.35750  0.45202  0.80764  Biso   1.000  H
  C15      1.0000 0.28583  0.39319  0.81494  Biso   1.000  C
  N10      1.0000 0.30130  0.32754  0.82658  Biso   1.000  N
  O4       1.0000 0.37499  0.26259  0.79723  Biso   1.000  O
  N11      1.0000 0.27465  0.24798  0.16256  Biso   1.000  N
  O5       1.0000 0.23158  0.34319  0.18142  Biso   1.000  O
  C16      1.0000 0.33204  0.22105  0.18469  Biso   1.000  C
  H12      1.0000 0.39618  0.29032  0.19009  Biso   1.000  H
  N12      1.0000 0.34105  0.17289  0.26308  Biso   1.000  N
  O6       1.0000 0.41177  0.15226  0.40428  Biso   1.000  O
  C17      1.0000 0.17605  0.39173  0.75891  Biso   1.000  C
  H13      1.0000 0.28492  0.41320  0.88041  Biso   1.000  H
  C18      1.0000 0.27581  0.28477  0.88953  Biso   1.000  C
  C19      1.0000 0.22423  0.21527  0.11048  Biso   1.000  C
  H14      1.0000 0.34419  0.20648  0.12272  Biso   1.000  H
  C20      1.0000 0.32395  0.10827  0.24111  Biso   1.000  C
  N13      1.0000 0.15896  0.32711  0.73701  Biso   1.000  N
  H15      1.0000 0.17471  0.40070  0.82947  Biso   1.000  H
  H16      1.0000 0.14860  0.41922  0.71686  Biso   1.000  H
  N14      1.0000 0.22535  0.25202  0.83745  Biso   1.000  N
  H17      1.0000 0.30471  0.25399  0.91827  Biso   1.000  H
  H18      1.0000 0.26550  0.30832  0.94542  Biso   1.000  H
  H19      1.0000 0.19530  0.24601  0.08181  Biso   1.000  H
  H20      1.0000 0.23450  0.19168  0.05459  Biso   1.000  H
  N15      1.0000 0.19874  0.17246  0.17344  Biso   1.000  N
  N16      1.0000 0.26638  0.09455  0.25882  Biso   1.000  N
  H21      1.0000 0.32530  0.09930  0.17062  Biso   1.000  H
  H22      1.0000 0.35141  0.08078  0.28323  Biso   1.000  H
  C21      1.0000 0.11262  0.31217  0.66112  Biso   1.000  C
  C22      1.0000 0.16796  0.27899  0.81532  Biso   1.000  C
  C23      1.0000 0.22637  0.19140  0.80422  Biso   1.000  C
  C24      1.0000 0.21417  0.10681  0.18515  Biso   1.000  C
  C25      1.0000 0.14960  0.18656  0.20940  Biso   1.000  C
  C26      1.0000 0.25651  0.05912  0.33828  Biso   1.000  C
  N17      1.0000 0.09890  0.25019  0.67306  Biso   1.000  N
  O7       1.0000 0.08828  0.34774  0.59581  Biso   1.000  O
  C27      1.0000 0.13012  0.22397  0.76620  Biso   1.000  C
  H23      1.0000 0.15582  0.29352  0.87737  Biso   1.000  H
  N18      1.0000 0.17201  0.17538  0.75488  Biso   1.000  N
  O8       1.0000 0.26842  0.15681  0.81859  Biso   1.000  O
  C28      1.0000 0.16611  0.07871  0.23654  Biso   1.000  C
  H24      1.0000 0.21508  0.08680  0.11960  Biso   1.000  H
  N19      1.0000 0.13260  0.13336  0.25365  Biso   1.000  N
  O9       1.0000 0.12502  0.23741  0.20286  Biso   1.000  O
  N20      1.0000 0.19826  0.04967  0.32703  Biso   1.000  N
  O10      1.0000 0.29371  0.03853  0.40724  Biso   1.000  O
  C29      1.0000 0.05330  0.21809  0.60554  Biso   1.000  C
  H25      1.0000 0.10382  0.20973  0.80992  Biso   1.000  H
  C30      1.0000 0.15599  0.11034  0.73032  Biso   1.000  C
  H26      1.0000 0.14250  0.04798  0.19244  Biso   1.000  H
  C31      1.0000 0.07535  0.12867  0.27859  Biso   1.000  C
  C32      1.0000 0.17198  0.01814  0.40215  Biso   1.000  C
  N21      1.0000 0.07343  0.17491  0.53627  Biso   1.000  N
  H27      1.0000 0.02841  0.24911  0.56600  Biso   1.000  H
  H28      1.0000 0.03022  0.19502  0.64569  Biso   1.000  H
  N22      1.0000 0.14168  0.09676  0.62371  Biso   1.000  N
  H29      1.0000 0.18780  0.08341  0.76096  Biso   1.000  H
  H30      1.0000 0.12309  0.09981  0.76081  Biso   1.000  H
  H31      1.0000 0.05788  0.08929  0.25198  Biso   1.000  H
  H32      1.0000 0.05159  0.16259  0.24514  Biso   1.000  H
  N23      1.0000 0.07576  0.13148  0.38641  Biso   1.000  N
  N24      1.0000 0.15089  0.06029  0.47241  Biso   1.000  N
  H33      1.0000 0.13989  0.99295  0.36740  Biso   1.000  H
  H34      1.0000 0.20013  0.98985  0.44085  Biso   1.000  H
  C33      1.0000 0.06220  0.18506  0.43340  Biso   1.000  C
  C34      1.0000 0.08577  0.10935  0.56015  Biso   1.000  C
  C35      1.0000 0.17706  0.06358  0.57270  Biso   1.000  C
  C36      1.0000 0.09116  0.08012  0.45689  Biso   1.000  C
  O11      1.0000 0.04288  0.23299  0.39052  Biso   1.000  O
  H35      1.0000 0.05460  0.08961  0.58783  Biso   1.000  H
  O12      1.0000 0.22373  0.04079  0.61125  Biso   1.000  O
  H36      1.0000 0.06482  0.04450  0.43994  Biso   1.000  H
  C37      1.0000 0.58580  0.60935  0.56015  Biso   1.000  C
  C38      1.0000 0.59118  0.58012  0.45689  Biso   1.000  C
  H37      1.0000 0.55462  0.58961  0.58783  Biso   1.000  H
  N25      1.0000 0.64170  0.59676  0.62371  Biso   1.000  N
  N26      1.0000 0.57341  0.67491  0.53627  Biso   1.000  N
  H38      1.0000 0.56479  0.54450  0.43994  Biso   1.000  H
  N27      1.0000 0.65091  0.56029  0.47241  Biso   1.000  N
  N28      1.0000 0.57578  0.63148  0.38641  Biso   1.000  N
  C39      1.0000 0.67704  0.56358  0.57270  Biso   1.000  C
  C40      1.0000 0.65601  0.61034  0.73032  Biso   1.000  C
  C41      1.0000 0.56222  0.68510  0.43340  Biso   1.000  C
  C42      1.0000 0.55328  0.71814  0.60554  Biso   1.000  C
  C43      1.0000 0.67200  0.51814  0.40215  Biso   1.000  C
  C44      1.0000 0.57537  0.62867  0.27859  Biso   1.000  C
  O13      1.0000 0.72371  0.54079  0.61125  Biso   1.000  O
  H39      1.0000 0.68783  0.58341  0.76096  Biso   1.000  H
  H40      1.0000 0.62311  0.59981  0.76081  Biso   1.000  H
  N29      1.0000 0.67203  0.67538  0.75488  Biso   1.000  N
  O14      1.0000 0.54290  0.73299  0.39052  Biso   1.000  O
  H41      1.0000 0.52843  0.74911  0.56600  Biso   1.000  H
  H42      1.0000 0.53020  0.69502  0.64569  Biso   1.000  H
  N30      1.0000 0.59893  0.75019  0.67306  Biso   1.000  N
  H43      1.0000 0.63991  0.49290  0.36740  Biso   1.000  H
  H44      1.0000 0.70011  0.48980  0.44085  Biso   1.000  H
  N31      1.0000 0.69828  0.54967  0.32703  Biso   1.000  N
  H45      1.0000 0.55790  0.58933  0.25198  Biso   1.000  H
  H46      1.0000 0.55161  0.66259  0.24514  Biso   1.000  H
  N32      1.0000 0.63262  0.63336  0.25365  Biso   1.000  N
  C45      1.0000 0.63014  0.72397  0.76620  Biso   1.000  C
  C46      1.0000 0.72639  0.69145  0.80422  Biso   1.000  C
  C47      1.0000 0.61264  0.81217  0.66112  Biso   1.000  C
  C48      1.0000 0.75649  0.55912  0.33828  Biso   1.000  C
  C49      1.0000 0.66609  0.57871  0.23654  Biso   1.000  C
  C50      1.0000 0.64962  0.68656  0.20940  Biso   1.000  C
  C51      1.0000 0.66798  0.77899  0.81532  Biso   1.000  C
  H47      1.0000 0.60380  0.70973  0.80992  Biso   1.000  H
  N33      1.0000 0.72537  0.75207  0.83745  Biso   1.000  N
  O15      1.0000 0.76840  0.65686  0.81859  Biso   1.000  O
  N34      1.0000 0.65898  0.82711  0.73701  Biso   1.000  N
  O16      1.0000 0.58826  0.84774  0.59581  Biso   1.000  O
  N35      1.0000 0.76641  0.59460  0.25882  Biso   1.000  N
  O17      1.0000 0.79369  0.53853  0.40724  Biso   1.000  O
  H48      1.0000 0.64253  0.54803  0.19244  Biso   1.000  H
  C52      1.0000 0.71415  0.60686  0.18515  Biso   1.000  C
  N36      1.0000 0.69872  0.67246  0.17344  Biso   1.000  N
  O18      1.0000 0.62504  0.73741  0.20286  Biso   1.000  O
  H49      1.0000 0.65584  0.79352  0.87737  Biso   1.000  H
  C53      1.0000 0.77579  0.78477  0.88953  Biso   1.000  C
  C54      1.0000 0.67607  0.89173  0.75891  Biso   1.000  C
  C55      1.0000 0.82393  0.60827  0.24111  Biso   1.000  C
  H50      1.0000 0.71511  0.58680  0.11960  Biso   1.000  H
  C56      1.0000 0.72421  0.71527  0.11048  Biso   1.000  C
  H51      1.0000 0.80473  0.75399  0.91827  Biso   1.000  H
  H52      1.0000 0.76553  0.80832  0.94542  Biso   1.000  H
  N37      1.0000 0.80128  0.82754  0.82658  Biso   1.000  N
  H53      1.0000 0.67473  0.90070  0.82947  Biso   1.000  H
  H54      1.0000 0.64862  0.91922  0.71686  Biso   1.000  H
  N38      1.0000 0.73364  0.90545  0.74119  Biso   1.000  N
  H55      1.0000 0.82532  0.59930  0.17062  Biso   1.000  H
  H56      1.0000 0.85139  0.58083  0.28323  Biso   1.000  H
  N39      1.0000 0.84107  0.67293  0.26308  Biso   1.000  N
  H57      1.0000 0.69532  0.74601  0.08181  Biso   1.000  H
  H58      1.0000 0.73452  0.69173  0.05459  Biso   1.000  H
  N40      1.0000 0.77467  0.74798  0.16256  Biso   1.000  N
  C57      1.0000 0.78585  0.89319  0.81494  Biso   1.000  C
  C58      1.0000 0.85042  0.81349  0.79061  Biso   1.000  C
  C59      1.0000 0.74351  0.94093  0.66173  Biso   1.000  C
  C60      1.0000 0.88736  0.68788  0.33889  Biso   1.000  C
  C61      1.0000 0.83206  0.72105  0.18469  Biso   1.000  C
  C62      1.0000 0.77365  0.80860  0.19579  Biso   1.000  C
  C63      1.0000 0.83392  0.92133  0.76354  Biso   1.000  C
  H59      1.0000 0.78489  0.91320  0.88041  Biso   1.000  H
  N41      1.0000 0.86737  0.86668  0.74636  Biso   1.000  N
  O19      1.0000 0.87501  0.76264  0.79723  Biso   1.000  O
  N42      1.0000 0.80176  0.95038  0.67299  Biso   1.000  N
  O20      1.0000 0.70632  0.96151  0.59284  Biso   1.000  O
  N43      1.0000 0.90107  0.74986  0.32695  Biso   1.000  N
  O21      1.0000 0.91175  0.65230  0.40428  Biso   1.000  O
  H60      1.0000 0.84421  0.70653  0.12272  Biso   1.000  H
  C64      1.0000 0.86986  0.77608  0.23381  Biso   1.000  C
  N44      1.0000 0.82797  0.82462  0.24514  Biso   1.000  N
  O22      1.0000 0.73160  0.84319  0.18142  Biso   1.000  O
  H61      1.0000 0.85752  0.95202  0.80764  Biso   1.000  H
  C65      1.0000 0.92462  0.87138  0.72142  Biso   1.000  C
  C66      1.0000 0.82805  0.98191  0.59794  Biso   1.000  C
  C67      1.0000 0.94673  0.78191  0.39455  Biso   1.000  C
  H62      1.0000 0.89620  0.79032  0.19009  Biso   1.000  H
  C68      1.0000 0.84403  0.88971  0.26970  Biso   1.000  C
  H63      1.0000 0.94210  0.91071  0.74803  Biso   1.000  H
  H64      1.0000 0.94840  0.83741  0.75495  Biso   1.000  H
  N45      1.0000 0.92426  0.86856  0.61360  Biso   1.000  N
  N46      1.0000 0.84913  0.93976  0.52761  Biso   1.000  N
  H65      1.0000 0.86009  0.00714  0.63261  Biso   1.000  H
  H66      1.0000 0.79990  0.01024  0.55924  Biso   1.000  H
  H67      1.0000 0.97161  0.75094  0.43401  Biso   1.000  H
  H68      1.0000 0.96980  0.80503  0.35432  Biso   1.000  H
  N47      1.0000 0.92659  0.82514  0.46374  Biso   1.000  N
  H69      1.0000 0.81222  0.91664  0.23913  Biso   1.000  H
  H70      1.0000 0.87689  0.90023  0.23921  Biso   1.000  H
  N48      1.0000 0.85835  0.90329  0.37637  Biso   1.000  N
  C69      1.0000 0.93782  0.81494  0.56661  Biso   1.000  C
  C70      1.0000 0.90886  0.91992  0.54312  Biso   1.000  C
  C71      1.0000 0.82296  0.93642  0.42732  Biso   1.000  C
  C72      1.0000 0.91425  0.89070  0.43994  Biso   1.000  C
  O23      1.0000 0.95711  0.76701  0.60957  Biso   1.000  O
  H71      1.0000 0.93521  0.95555  0.56015  Biso   1.000  H
  O24      1.0000 0.77629  0.95921  0.38877  Biso   1.000  O
  H72      1.0000 0.94542  0.91043  0.41219  Biso   1.000  H
  C73      1.0000 0.34402  0.61034  0.76970  Biso   1.000  C
  H73      1.0000 0.31221  0.58341  0.73914  Biso   1.000  H
  H74      1.0000 0.37692  0.59981  0.73921  Biso   1.000  H
  N49      1.0000 0.32800  0.67538  0.74514  Biso   1.000  N
  N50      1.0000 0.35834  0.59676  0.87638  Biso   1.000  N
  C74      1.0000 0.36989  0.72397  0.73381  Biso   1.000  C
  C75      1.0000 0.27364  0.69145  0.69580  Biso   1.000  C
  C76      1.0000 0.41424  0.60935  0.93994  Biso   1.000  C
  C77      1.0000 0.32299  0.56358  0.92732  Biso   1.000  C
  C78      1.0000 0.33205  0.77899  0.68470  Biso   1.000  C
  N51      1.0000 0.40111  0.75019  0.82696  Biso   1.000  N
  H75      1.0000 0.39623  0.70973  0.69009  Biso   1.000  H
  H76      1.0000 0.39619  0.70973  0.69009  Biso   1.000  H
  N52      1.0000 0.27466  0.75207  0.66257  Biso   1.000  N
  O25      1.0000 0.23163  0.65686  0.68143  Biso   1.000  O
  O26      1.0000 0.23160  0.65686  0.68150  Biso   1.000  O
  N53      1.0000 0.42662  0.67491  0.96374  Biso   1.000  N
  H77      1.0000 0.44542  0.58961  0.91227  Biso   1.000  H
  N54      1.0000 0.42658  0.67491  0.96382  Biso   1.000  N
  C79      1.0000 0.40885  0.58012  0.04312  Biso   1.000  C
  O27      1.0000 0.27632  0.54079  0.88877  Biso   1.000  O
  O28      1.0000 0.27628  0.54079  0.88877  Biso   1.000  O
  N55      1.0000 0.34913  0.56029  0.02769  Biso   1.000  N
  H78      1.0000 0.34424  0.79352  0.62273  Biso   1.000  H
  H79      1.0000 0.34420  0.79352  0.62273  Biso   1.000  H
  N56      1.0000 0.34106  0.82711  0.76309  Biso   1.000  N
  C80      1.0000 0.38739  0.81217  0.83889  Biso   1.000  C
  C81      1.0000 0.44675  0.71814  0.89448  Biso   1.000  C
  C82      1.0000 0.38740  0.81217  0.83897  Biso   1.000  C
  C83      1.0000 0.44676  0.71814  0.89455  Biso   1.000  C
  C84      1.0000 0.22424  0.78477  0.61048  Biso   1.000  C
  C85      1.0000 0.22420  0.78477  0.61056  Biso   1.000  C
  C86      1.0000 0.43781  0.68510  0.06662  Biso   1.000  C
  H80      1.0000 0.43524  0.54450  0.06008  Biso   1.000  H
  N57      1.0000 0.42425  0.63148  0.11361  Biso   1.000  N
  H81      1.0000 0.43520  0.54450  0.06016  Biso   1.000  H
  C87      1.0000 0.32804  0.51814  0.09795  Biso   1.000  C
  C88      1.0000 0.32396  0.89173  0.74111  Biso   1.000  C
  O29      1.0000 0.41177  0.84774  0.90421  Biso   1.000  O
  O30      1.0000 0.41173  0.84774  0.90428  Biso   1.000  O
  H82      1.0000 0.47160  0.74911  0.93401  Biso   1.000  H
  H83      1.0000 0.46979  0.69502  0.85433  Biso   1.000  H
  H84      1.0000 0.19531  0.75399  0.58182  Biso   1.000  H
  H85      1.0000 0.23451  0.80832  0.55460  Biso   1.000  H
  N58      1.0000 0.19875  0.82754  0.67344  Biso   1.000  N
  O31      1.0000 0.45714  0.73299  0.10958  Biso   1.000  O
  C89      1.0000 0.42466  0.62867  0.22143  Biso   1.000  C
  H86      1.0000 0.36012  0.49290  0.13262  Biso   1.000  H
  H87      1.0000 0.29993  0.48980  0.05924  Biso   1.000  H
  N59      1.0000 0.30175  0.54967  0.17299  Biso   1.000  N
  H88      1.0000 0.32531  0.90070  0.67063  Biso   1.000  H
  H89      1.0000 0.35142  0.91922  0.78324  Biso   1.000  H
  N60      1.0000 0.26639  0.90545  0.75883  Biso   1.000  N
  C90      1.0000 0.14961  0.81349  0.70941  Biso   1.000  C
  C91      1.0000 0.21419  0.89319  0.68515  Biso   1.000  C
  H90      1.0000 0.44213  0.58933  0.24804  Biso   1.000  H
  H91      1.0000 0.44843  0.66259  0.25496  Biso   1.000  H
  N61      1.0000 0.36741  0.63336  0.24637  Biso   1.000  N
  C92      1.0000 0.24354  0.55912  0.16174  Biso   1.000  C
  C93      1.0000 0.33395  0.57871  0.26355  Biso   1.000  C
  C94      1.0000 0.33391  0.57871  0.26355  Biso   1.000  C
  C95      1.0000 0.25652  0.94093  0.83829  Biso   1.000  C
  C96      1.0000 0.25649  0.94093  0.83836  Biso   1.000  C
  O32      1.0000 0.12507  0.76264  0.70287  Biso   1.000  O
  N62      1.0000 0.13261  0.86668  0.75366  Biso   1.000  N
  O33      1.0000 0.12503  0.76264  0.70287  Biso   1.000  O
  H92      1.0000 0.21514  0.91320  0.61961  Biso   1.000  H
  C97      1.0000 0.16612  0.92133  0.73655  Biso   1.000  C
  H93      1.0000 0.21509  0.91320  0.61961  Biso   1.000  H
  C98      1.0000 0.35041  0.68656  0.29062  Biso   1.000  C
  N63      1.0000 0.23363  0.59460  0.24120  Biso   1.000  N
  O34      1.0000 0.20631  0.53853  0.09285  Biso   1.000  O
  H94      1.0000 0.35751  0.54803  0.30765  Biso   1.000  H
  C99      1.0000 0.28584  0.60686  0.31495  Biso   1.000  C
  O35      1.0000 0.29371  0.96151  0.90717  Biso   1.000  O
  N64      1.0000 0.19828  0.95038  0.82711  Biso   1.000  N
  O36      1.0000 0.29372  0.96151  0.90725  Biso   1.000  O
  C100     1.0000 0.07541  0.87138  0.77860  Biso   1.000  C
  C101     1.0000 0.07536  0.87138  0.77860  Biso   1.000  C
  H95      1.0000 0.14252  0.95202  0.69245  Biso   1.000  H
  N65      1.0000 0.30131  0.67246  0.32658  Biso   1.000  N
  O37      1.0000 0.37499  0.73741  0.29716  Biso   1.000  O
  N66      1.0000 0.30127  0.67246  0.32666  Biso   1.000  N
  O38      1.0000 0.37500  0.73741  0.29723  Biso   1.000  O
  C102     1.0000 0.17610  0.60827  0.25891  Biso   1.000  C
  C103     1.0000 0.17607  0.60827  0.25899  Biso   1.000  C
  H96      1.0000 0.28493  0.58680  0.38049  Biso   1.000  H
  C104     1.0000 0.17199  0.98191  0.90216  Biso   1.000  C
  H97      1.0000 0.05794  0.91071  0.75199  Biso   1.000  H
  H98      1.0000 0.05163  0.83741  0.74507  Biso   1.000  H
  N67      1.0000 0.07577  0.86856  0.88642  Biso   1.000  N
  H99      1.0000 0.05790  0.91071  0.75206  Biso   1.000  H
  H100     1.0000 0.05160  0.83741  0.74514  Biso   1.000  H
  N68      1.0000 0.07578  0.86856  0.88649  Biso   1.000  N
  C105     1.0000 0.27582  0.71527  0.38954  Biso   1.000  C
  H101     1.0000 0.14864  0.58083  0.21679  Biso   1.000  H
  N69      1.0000 0.15897  0.67293  0.23701  Biso   1.000  N
  H102     1.0000 0.17472  0.59930  0.32947  Biso   1.000  H
  H103     1.0000 0.14861  0.58083  0.21686  Biso   1.000  H
  N70      1.0000 0.15090  0.93976  0.97241  Biso   1.000  N
  H104     1.0000 0.20013  0.01024  0.94078  Biso   1.000  H
  H105     1.0000 0.13990  0.00714  0.86741  Biso   1.000  H
  H106     1.0000 0.20010  0.01024  0.94086  Biso   1.000  H
  C106     1.0000 0.06221  0.81494  0.93341  Biso   1.000  C
  C107     1.0000 0.09118  0.91992  0.95698  Biso   1.000  C
  H107     1.0000 0.26551  0.69173  0.44543  Biso   1.000  H
  N71      1.0000 0.22536  0.74798  0.33746  Biso   1.000  N
  H108     1.0000 0.30472  0.74601  0.41828  Biso   1.000  H
  N72      1.0000 0.22537  0.74798  0.33753  Biso   1.000  N
  C108     1.0000 0.11267  0.68788  0.16113  Biso   1.000  C
  C109     1.0000 0.16797  0.72105  0.31533  Biso   1.000  C
  C110     1.0000 0.11263  0.68788  0.16113  Biso   1.000  C
  C111     1.0000 0.17708  0.93642  0.07270  Biso   1.000  C
  C112     1.0000 0.17704  0.93642  0.07278  Biso   1.000  C
  O39      1.0000 0.04293  0.76701  0.89045  Biso   1.000  O
  O40      1.0000 0.04289  0.76701  0.89052  Biso   1.000  O
  N73      1.0000 0.07345  0.82514  0.03628  Biso   1.000  N
  H109     1.0000 0.06483  0.95555  0.93994  Biso   1.000  H
  C113     1.0000 0.08582  0.89070  0.06008  Biso   1.000  C
  C114     1.0000 0.08579  0.89070  0.06016  Biso   1.000  C
  C115     1.0000 0.22638  0.80860  0.30423  Biso   1.000  C
  N74      1.0000 0.09896  0.74986  0.17307  Biso   1.000  N
  O41      1.0000 0.08829  0.65230  0.09582  Biso   1.000  O
  N75      1.0000 0.09892  0.74986  0.17314  Biso   1.000  N
  O42      1.0000 0.08825  0.65230  0.09582  Biso   1.000  O
  C116     1.0000 0.13017  0.77608  0.26621  Biso   1.000  C
  H110     1.0000 0.15583  0.70653  0.37737  Biso   1.000  H
  C117     1.0000 0.13013  0.77608  0.26629  Biso   1.000  C
  N76      1.0000 0.14169  0.90329  0.12372  Biso   1.000  N
  O43      1.0000 0.22375  0.95921  0.11133  Biso   1.000  O
  C118     1.0000 0.05331  0.78191  0.10555  Biso   1.000  C
  C119     1.0000 0.05327  0.78191  0.10555  Biso   1.000  C
  H111     1.0000 0.05461  0.91043  0.08783  Biso   1.000  H
  N77      1.0000 0.17206  0.82462  0.25488  Biso   1.000  N
  O44      1.0000 0.26843  0.84319  0.31860  Biso   1.000  O
  N78      1.0000 0.17203  0.82462  0.25496  Biso   1.000  N
  H112     1.0000 0.10383  0.79032  0.30993  Biso   1.000  H
  C120     1.0000 0.15600  0.88971  0.23032  Biso   1.000  C
  H113     1.0000 0.02842  0.75094  0.06601  Biso   1.000  H
  H114     1.0000 0.03023  0.80503  0.14570  Biso   1.000  H
  H115     1.0000 0.03019  0.80503  0.14577  Biso   1.000  H
  H116     1.0000 0.18781  0.91664  0.26089  Biso   1.000  H
  H117     1.0000 0.12314  0.90023  0.26081  Biso   1.000  H
  H118     1.0000 0.18781  0.91664  0.26096  Biso   1.000  H
  H119     1.0000 0.12310  0.90023  0.26089  Biso   1.000  H
  C121     1.0000 0.65600  0.38971  0.23031  Biso   1.000  C
  N79      1.0000 0.67202  0.32462  0.25487  Biso   1.000  N
  N80      1.0000 0.67203  0.32462  0.25495  Biso   1.000  N
  N81      1.0000 0.64169  0.40329  0.12371  Biso   1.000  N
  H120     1.0000 0.68781  0.41659  0.26095  Biso   1.000  H
  H121     1.0000 0.62310  0.40019  0.26088  Biso   1.000  H
  C122     1.0000 0.63013  0.27608  0.26627  Biso   1.000  C
  C123     1.0000 0.72634  0.30860  0.30422  Biso   1.000  C
  C124     1.0000 0.58578  0.39070  0.06007  Biso   1.000  C
  C125     1.0000 0.58579  0.39070  0.06014  Biso   1.000  C
  C126     1.0000 0.67703  0.43642  0.07269  Biso   1.000  C
  C127     1.0000 0.67704  0.43642  0.07277  Biso   1.000  C
  N82      1.0000 0.59891  0.24981  0.17306  Biso   1.000  N
  N83      1.0000 0.59892  0.24981  0.17313  Biso   1.000  N
  C128     1.0000 0.66797  0.22105  0.31532  Biso   1.000  C
  H122     1.0000 0.60379  0.29032  0.30992  Biso   1.000  H
  N84      1.0000 0.72536  0.24798  0.33744  Biso   1.000  N
  N85      1.0000 0.72537  0.24798  0.33752  Biso   1.000  N
  O45      1.0000 0.76843  0.34319  0.31859  Biso   1.000  O
  O46      1.0000 0.76839  0.34319  0.31859  Biso   1.000  O
  N86      1.0000 0.57345  0.32514  0.03627  Biso   1.000  N
  N87      1.0000 0.57340  0.32514  0.03627  Biso   1.000  N
  H123     1.0000 0.55461  0.41043  0.08782  Biso   1.000  H
  C129     1.0000 0.59117  0.41988  0.95689  Biso   1.000  C
  C130     1.0000 0.59118  0.41988  0.95696  Biso   1.000  C
  N88      1.0000 0.65090  0.43976  0.97240  Biso   1.000  N
  N89      1.0000 0.65086  0.43976  0.97240  Biso   1.000  N
  O47      1.0000 0.72370  0.45921  0.11132  Biso   1.000  O
  C131     1.0000 0.55327  0.28191  0.10554  Biso   1.000  C
  C132     1.0000 0.61263  0.18783  0.16112  Biso   1.000  C
  N90      1.0000 0.65893  0.17289  0.23700  Biso   1.000  N
  H124     1.0000 0.65582  0.20648  0.37729  Biso   1.000  H
  H125     1.0000 0.65579  0.20648  0.37736  Biso   1.000  H
  C133     1.0000 0.77578  0.21527  0.38953  Biso   1.000  C
  C134     1.0000 0.56221  0.31494  0.93339  Biso   1.000  C
  N91      1.0000 0.57577  0.36852  0.88640  Biso   1.000  N
  N92      1.0000 0.57574  0.36852  0.88648  Biso   1.000  N
  H126     1.0000 0.56478  0.45550  0.93993  Biso   1.000  H
  C135     1.0000 0.67198  0.48186  0.90207  Biso   1.000  C
  C136     1.0000 0.67195  0.48186  0.90214  Biso   1.000  C
  H127     1.0000 0.52842  0.25089  0.06600  Biso   1.000  H
  H128     1.0000 0.53019  0.30503  0.14568  Biso   1.000  H
  H129     1.0000 0.52837  0.25089  0.06600  Biso   1.000  H
  H130     1.0000 0.53019  0.30503  0.14576  Biso   1.000  H
  O48      1.0000 0.58825  0.15226  0.09580  Biso   1.000  O
  C137     1.0000 0.67606  0.10827  0.25890  Biso   1.000  C
  C138     1.0000 0.67607  0.10827  0.25898  Biso   1.000  C
  H131     1.0000 0.76552  0.19168  0.44541  Biso   1.000  H
  H132     1.0000 0.80471  0.24601  0.41819  Biso   1.000  H
  N93      1.0000 0.80127  0.17246  0.32657  Biso   1.000  N
  H133     1.0000 0.80472  0.24601  0.41827  Biso   1.000  H
  N94      1.0000 0.80127  0.17246  0.32665  Biso   1.000  N
  O49      1.0000 0.54288  0.26701  0.89043  Biso   1.000  O
  O50      1.0000 0.54289  0.26701  0.89051  Biso   1.000  O
  C139     1.0000 0.57536  0.37138  0.77859  Biso   1.000  C
  H134     1.0000 0.63990  0.50710  0.86739  Biso   1.000  H
  H135     1.0000 0.70009  0.51020  0.94077  Biso   1.000  H
  H136     1.0000 0.70010  0.51020  0.94084  Biso   1.000  H
  N95      1.0000 0.69828  0.45038  0.82710  Biso   1.000  N
  N96      1.0000 0.73363  0.09455  0.24118  Biso   1.000  N
  H137     1.0000 0.67471  0.09930  0.32938  Biso   1.000  H
  H138     1.0000 0.67472  0.09930  0.32946  Biso   1.000  H
  H139     1.0000 0.64861  0.08078  0.21685  Biso   1.000  H
  C140     1.0000 0.78584  0.10681  0.31494  Biso   1.000  C
  C141     1.0000 0.85041  0.18656  0.29061  Biso   1.000  C
  C142     1.0000 0.85037  0.18656  0.29061  Biso   1.000  C
  H140     1.0000 0.55159  0.33741  0.74505  Biso   1.000  H
  N97      1.0000 0.63261  0.36668  0.75365  Biso   1.000  N
  H141     1.0000 0.55790  0.41071  0.75205  Biso   1.000  H
  H142     1.0000 0.55160  0.33741  0.74513  Biso   1.000  H
  C143     1.0000 0.66607  0.42129  0.73646  Biso   1.000  C
  C144     1.0000 0.66608  0.42129  0.73654  Biso   1.000  C
  C145     1.0000 0.75649  0.44093  0.83835  Biso   1.000  C
  C146     1.0000 0.74350  0.05912  0.16173  Biso   1.000  C
  C147     1.0000 0.83391  0.07871  0.26354  Biso   1.000  C
  H143     1.0000 0.78493  0.08680  0.38040  Biso   1.000  H
  H144     1.0000 0.78489  0.08680  0.38048  Biso   1.000  H
  N98      1.0000 0.86736  0.13336  0.24635  Biso   1.000  N
  O51      1.0000 0.87499  0.23741  0.29714  Biso   1.000  O
  O52      1.0000 0.87496  0.23741  0.29722  Biso   1.000  O
  C148     1.0000 0.64961  0.31349  0.70939  Biso   1.000  C
  H145     1.0000 0.64251  0.45202  0.69236  Biso   1.000  H
  C149     1.0000 0.71418  0.39319  0.68506  Biso   1.000  C
  H146     1.0000 0.64247  0.45202  0.69244  Biso   1.000  H
  C150     1.0000 0.71414  0.39319  0.68514  Biso   1.000  C
  N99      1.0000 0.76639  0.40545  0.75882  Biso   1.000  N
  O53      1.0000 0.79371  0.46151  0.90716  Biso   1.000  O
  O54      1.0000 0.79368  0.46151  0.90724  Biso   1.000  O
  O55      1.0000 0.70631  0.03853  0.09284  Biso   1.000  O
  N100     1.0000 0.80171  0.04967  0.17298  Biso   1.000  N
  H147     1.0000 0.85751  0.04798  0.30764  Biso   1.000  H
  C151     1.0000 0.92466  0.12867  0.22141  Biso   1.000  C
  C152     1.0000 0.92461  0.12867  0.22141  Biso   1.000  C
  N101     1.0000 0.69875  0.32754  0.67343  Biso   1.000  N
  O56      1.0000 0.62503  0.26259  0.70286  Biso   1.000  O
  N102     1.0000 0.69871  0.32754  0.67343  Biso   1.000  N
  H148     1.0000 0.71509  0.41320  0.61960  Biso   1.000  H
  C153     1.0000 0.82392  0.39173  0.74110  Biso   1.000  C
  C154     1.0000 0.82804  0.01814  0.09793  Biso   1.000  C
  N103     1.0000 0.92425  0.13148  0.11360  Biso   1.000  N
  H149     1.0000 0.94208  0.08929  0.24803  Biso   1.000  H
  H150     1.0000 0.94839  0.16259  0.25495  Biso   1.000  H
  C155     1.0000 0.72420  0.28477  0.61047  Biso   1.000  C
  C156     1.0000 0.72421  0.28477  0.61055  Biso   1.000  C
  H151     1.0000 0.82531  0.40070  0.67062  Biso   1.000  H
  H152     1.0000 0.85142  0.41922  0.78322  Biso   1.000  H
  H153     1.0000 0.85138  0.41922  0.78322  Biso   1.000  H
  N104     1.0000 0.84106  0.32711  0.76307  Biso   1.000  N
  H154     1.0000 0.79989  0.98985  0.05923  Biso   1.000  H
  H155     1.0000 0.86008  0.99295  0.13261  Biso   1.000  H
  N105     1.0000 0.84912  0.06029  0.02760  Biso   1.000  N
  N106     1.0000 0.84913  0.06029  0.02768  Biso   1.000  N
  C157     1.0000 0.90881  0.08012  0.04311  Biso   1.000  C
  C158     1.0000 0.93781  0.18506  0.06661  Biso   1.000  C
  H156     1.0000 0.69531  0.25399  0.58181  Biso   1.000  H
  H157     1.0000 0.73451  0.30832  0.55459  Biso   1.000  H
  N107     1.0000 0.77466  0.25202  0.66256  Biso   1.000  N
  C159     1.0000 0.83205  0.27899  0.68468  Biso   1.000  C
  C160     1.0000 0.88739  0.31217  0.83888  Biso   1.000  C
  C161     1.0000 0.88736  0.31217  0.83896  Biso   1.000  C
  C162     1.0000 0.82299  0.06358  0.92731  Biso   1.000  C
  C163     1.0000 0.82295  0.06358  0.92731  Biso   1.000  C
  C164     1.0000 0.91424  0.10935  0.93993  Biso   1.000  C
  C165     1.0000 0.91420  0.10935  0.93993  Biso   1.000  C
  H158     1.0000 0.93519  0.04450  0.06007  Biso   1.000  H
  H159     1.0000 0.93520  0.04450  0.06014  Biso   1.000  H
  N108     1.0000 0.92658  0.17491  0.96373  Biso   1.000  N
  N109     1.0000 0.92658  0.17491  0.96381  Biso   1.000  N
  O57      1.0000 0.95714  0.23299  0.10957  Biso   1.000  O
  O58      1.0000 0.95710  0.23299  0.10957  Biso   1.000  O
  C166     1.0000 0.77364  0.19140  0.69578  Biso   1.000  C
  H160     1.0000 0.84420  0.29352  0.62271  Biso   1.000  H
  C167     1.0000 0.86985  0.22397  0.73380  Biso   1.000  C
  N110     1.0000 0.90111  0.25019  0.82694  Biso   1.000  N
  O59      1.0000 0.91173  0.34774  0.90420  Biso   1.000  O
  N111     1.0000 0.90106  0.25019  0.82694  Biso   1.000  N
  O60      1.0000 0.91174  0.34774  0.90427  Biso   1.000  O
  N112     1.0000 0.85833  0.09676  0.87629  Biso   1.000  N
  O61      1.0000 0.77628  0.04079  0.88876  Biso   1.000  O
  N113     1.0000 0.85830  0.09676  0.87637  Biso   1.000  N
  H161     1.0000 0.94541  0.08961  0.91218  Biso   1.000  H
  H162     1.0000 0.94542  0.08961  0.91226  Biso   1.000  H
  C168     1.0000 0.94675  0.21809  0.89446  Biso   1.000  C
  C169     1.0000 0.94672  0.21809  0.89454  Biso   1.000  C
  N114     1.0000 0.82800  0.17538  0.74513  Biso   1.000  N
  O62      1.0000 0.73159  0.15681  0.68141  Biso   1.000  O
  N115     1.0000 0.82796  0.17538  0.74513  Biso   1.000  N
  O63      1.0000 0.73160  0.15681  0.68149  Biso   1.000  O
  H163     1.0000 0.89619  0.20973  0.69008  Biso   1.000  H
  C170     1.0000 0.84402  0.11034  0.76969  Biso   1.000  C
  H164     1.0000 0.97160  0.24911  0.93400  Biso   1.000  H
  H165     1.0000 0.96979  0.19502  0.85432  Biso   1.000  H
  H166     1.0000 0.81221  0.08341  0.73912  Biso   1.000  H
  H167     1.0000 0.87692  0.09981  0.73920  Biso   1.000  H
  H168     1.0000 0.87688  0.09981  0.73920  Biso   1.000  H
