data_image0
_cell_length_a       11.612
_cell_length_b       12.963
_cell_length_c       22.254
_cell_angle_alpha    90
_cell_angle_beta     91.39
_cell_angle_gamma    90

_symmetry_space_group_name_H-M    "P 1"
_symmetry_int_tables_number       1

loop_
  _symmetry_equiv_pos_as_xyz
  'x, y, z'

loop_
  _atom_site_label
  _atom_site_occupancy
  _atom_site_fract_x
  _atom_site_fract_y
  _atom_site_fract_z
  _atom_site_thermal_displace_type
  _atom_site_B_iso_or_equiv
  _atom_site_type_symbol
  C1       1.0000 0.66232  0.35586  0.36292  Biso   1.000  C
  C2       1.0000 0.78911  0.39852  0.36152  Biso   1.000  C
  C3       1.0000 0.74909  0.34352  0.41011  Biso   1.000  C
  H1       1.0000 0.72396  0.41672  0.33469  Biso   1.000  H
  H2       1.0000 0.70562  0.28419  0.39582  Biso   1.000  H
  H3       1.0000 0.66361  0.28442  0.37568  Biso   1.000  H
  H4       1.0000 0.61797  0.39636  0.39070  Biso   1.000  H
  H5       1.0000 0.62723  0.36056  0.32300  Biso   1.000  H
  O1       1.0000 0.86968  0.34136  0.32925  Biso   1.000  O
  H6       1.0000 0.82491  0.46262  0.37582  Biso   1.000  H
  H7       1.0000 0.81791  0.40446  0.40310  Biso   1.000  H
  H8       1.0000 0.78618  0.46833  0.34471  Biso   1.000  H
  H9       1.0000 0.81389  0.32060  0.43502  Biso   1.000  H
  H10      1.0000 0.69971  0.38749  0.43362  Biso   1.000  H
  C4       1.0000 0.97911  0.32901  0.35271  Biso   1.000  C
  C5       1.0000 0.05014  0.26290  0.32094  Biso   1.000  C
  C6       1.0000 0.02219  0.38070  0.40319  Biso   1.000  C
  C7       1.0000 0.00656  0.21176  0.26345  Biso   1.000  C
  C8       1.0000 0.16121  0.24732  0.34265  Biso   1.000  C
  H11      1.0000 0.97445  0.42783  0.42288  Biso   1.000  H
  H12      1.0000 0.97445  0.42776  0.42288  Biso   1.000  H
  C9       1.0000 0.13301  0.36481  0.42522  Biso   1.000  C
  C10      1.0000 0.97824  0.09813  0.27095  Biso   1.000  C
  H13      1.0000 0.93742  0.24801  0.24888  Biso   1.000  H
  H14      1.0000 0.06533  0.21878  0.23279  Biso   1.000  H
  C11      1.0000 0.20203  0.29553  0.39461  Biso   1.000  C
  H15      1.0000 0.21027  0.20312  0.32170  Biso   1.000  H
  C12      1.0000 0.17888  0.42089  0.48010  Biso   1.000  C
  C13      1.0000 0.86830  0.06796  0.28659  Biso   1.000  C
  C14      1.0000 0.06071  0.02253  0.26115  Biso   1.000  C
  O2       1.0000 0.31055  0.28142  0.41888  Biso   1.000  O
  C15      1.0000 0.16423  0.36326  0.53903  Biso   1.000  C
  H16      1.0000 0.26097  0.43470  0.47502  Biso   1.000  H
  H17      1.0000 0.13956  0.48762  0.48280  Biso   1.000  H
  C16      1.0000 0.83992  0.96428  0.29289  Biso   1.000  C
  H18      1.0000 0.81185  0.11849  0.29311  Biso   1.000  H
  C17      1.0000 0.03152  0.91854  0.26673  Biso   1.000  C
  O3       1.0000 0.16738  0.05786  0.24569  Biso   1.000  O
  C18      1.0000 0.37756  0.22063  0.38022  Biso   1.000  C
  C19      1.0000 0.37871  0.18622  0.41241  Biso   1.000  C
  C20      1.0000 0.25445  0.35385  0.58106  Biso   1.000  C
  C21      1.0000 0.05735  0.32307  0.55377  Biso   1.000  C
  O4       1.0000 0.73299  0.92911  0.30844  Biso   1.000  O
  C22      1.0000 0.92237  0.88814  0.28264  Biso   1.000  C
  H19      1.0000 0.08750  0.86801  0.25949  Biso   1.000  H
  C23      1.0000 0.25322  0.98658  0.22861  Biso   1.000  C
  H20      1.0000 0.34597  0.15097  0.37501  Biso   1.000  H
  H21      1.0000 0.38693  0.25318  0.34089  Biso   1.000  H
  C24      1.0000 0.48735  0.22078  0.41708  Biso   1.000  C
  H22      1.0000 0.41722  0.18823  0.37371  Biso   1.000  H
  H23      1.0000 0.32597  0.12713  0.41160  Biso   1.000  H
  C25      1.0000 0.46886  0.16933  0.46199  Biso   1.000  C
  O5       1.0000 0.35869  0.39543  0.56510  Biso   1.000  O
  C26      1.0000 0.23584  0.30710  0.63634  Biso   1.000  C
  H24      1.0000 0.99584  0.32762  0.52559  Biso   1.000  H
  C27      1.0000 0.03872  0.27640  0.60883  Biso   1.000  C
  C28      1.0000 0.64562  0.00270  0.31860  Biso   1.000  C
  C29      1.0000 0.89103  0.77451  0.28637  Biso   1.000  C
  H25      1.0000 0.27226  0.93967  0.26201  Biso   1.000  H
  H26      1.0000 0.22587  0.94554  0.19409  Biso   1.000  H
  H27      1.0000 0.22587  0.94546  0.19409  Biso   1.000  H
  C30      1.0000 0.35632  0.04837  0.21234  Biso   1.000  C
  H28      1.0000 0.47292  0.19332  0.45682  Biso   1.000  H
  H29      1.0000 0.54415  0.17828  0.39762  Biso   1.000  H
  H30      1.0000 0.51612  0.29083  0.42081  Biso   1.000  H
  H31      1.0000 0.51096  0.23297  0.46922  Biso   1.000  H
  H32      1.0000 0.43146  0.14842  0.49848  Biso   1.000  H
  H33      1.0000 0.52195  0.11579  0.44989  Biso   1.000  H
  C31      1.0000 0.45352  0.38633  0.60618  Biso   1.000  C
  C32      1.0000 0.45352  0.38625  0.60618  Biso   1.000  C
  C33      1.0000 0.12846  0.26869  0.65140  Biso   1.000  C
  H34      1.0000 0.29759  0.30140  0.66421  Biso   1.000  H
  O6       1.0000 0.93437  0.23799  0.62591  Biso   1.000  O
  H35      1.0000 0.67142  0.05238  0.34921  Biso   1.000  H
  H36      1.0000 0.62676  0.04019  0.28138  Biso   1.000  H
  C34      1.0000 0.54205  0.94492  0.33954  Biso   1.000  C
  C35      1.0000 0.87144  0.73131  0.34862  Biso   1.000  C
  H37      1.0000 0.95270  0.73448  0.26812  Biso   1.000  H
  H38      1.0000 0.82082  0.76333  0.26192  Biso   1.000  H
  H39      1.0000 0.38073  0.09049  0.24641  Biso   1.000  H
  H40      1.0000 0.41835  0.00231  0.20169  Biso   1.000  H
  H41      1.0000 0.33701  0.09249  0.17840  Biso   1.000  H
  H42      1.0000 0.43616  0.42089  0.64412  Biso   1.000  H
  C36      1.0000 0.55609  0.43539  0.57849  Biso   1.000  C
  H43      1.0000 0.46924  0.31335  0.61472  Biso   1.000  H
  C37      1.0000 0.10896  0.22549  0.71365  Biso   1.000  C
  C38      1.0000 0.84483  0.23166  0.58195  Biso   1.000  C
  H44      1.0000 0.56291  0.90511  0.37510  Biso   1.000  H
  H45      1.0000 0.48170  0.99352  0.34912  Biso   1.000  H
  H46      1.0000 0.51475  0.89871  0.30799  Biso   1.000  H
  C39      1.0000 0.76415  0.69290  0.36368  Biso   1.000  C
  C40      1.0000 0.96117  0.72352  0.39115  Biso   1.000  C
  H47      1.0000 0.62212  0.42999  0.60591  Biso   1.000  H
  H48      1.0000 0.57286  0.40060  0.54110  Biso   1.000  H
  H49      1.0000 0.53987  0.50760  0.57040  Biso   1.000  H
  C41      1.0000 0.07753  0.11186  0.71734  Biso   1.000  C
  H50      1.0000 0.04729  0.26552  0.73190  Biso   1.000  H
  H51      1.0000 0.17916  0.23667  0.73811  Biso   1.000  H
  H52      1.0000 0.82291  0.30078  0.56811  Biso   1.000  H
  H53      1.0000 0.87000  0.19147  0.54730  Biso   1.000  H
  C42      1.0000 0.74431  0.17936  0.61113  Biso   1.000  C
  C43      1.0000 0.94264  0.67693  0.44625  Biso   1.000  C
  O7       1.0000 0.06562  0.76201  0.37411  Biso   1.000  O
  H54      1.0000 0.70240  0.69860  0.33581  Biso   1.000  H
  C44      1.0000 0.74554  0.64615  0.41897  Biso   1.000  C
  C45      1.0000 0.96847  0.08146  0.73325  Biso   1.000  C
  C46      1.0000 0.15998  0.03572  0.70714  Biso   1.000  C
  H55      1.0000 0.72524  0.21608  0.64749  Biso   1.000  H
  H56      1.0000 0.67826  0.17982  0.58348  Biso   1.000  H
  H57      1.0000 0.76475  0.10869  0.62101  Biso   1.000  H
  C47      1.0000 0.83576  0.63674  0.46100  Biso   1.000  C
  C48      1.0000 0.83576  0.63666  0.46100  Biso   1.000  C
  H58      1.0000 0.00406  0.67238  0.47439  Biso   1.000  H
  C49      1.0000 0.15507  0.76826  0.41803  Biso   1.000  C
  O8       1.0000 0.64130  0.60457  0.43493  Biso   1.000  O
  C50      1.0000 0.93928  0.97747  0.73887  Biso   1.000  C
  H59      1.0000 0.91248  0.13199  0.74049  Biso   1.000  H
  C51      1.0000 0.13168  0.93204  0.71339  Biso   1.000  C
  O9       1.0000 0.26699  0.07089  0.69154  Biso   1.000  O
  C52      1.0000 0.82110  0.57911  0.51988  Biso   1.000  C
  C53      1.0000 0.25568  0.82057  0.38890  Biso   1.000  C
  H60      1.0000 0.17707  0.69922  0.43191  Biso   1.000  H
  H61      1.0000 0.12998  0.80853  0.45268  Biso   1.000  H
  C54      1.0000 0.54638  0.61367  0.39380  Biso   1.000  C
  C55      1.0000 0.02175  0.90187  0.72907  Biso   1.000  C
  O10      1.0000 0.83261  0.94214  0.75433  Biso   1.000  O
  H62      1.0000 0.18805  0.88151  0.70691  Biso   1.000  H
  C56      1.0000 0.35436  0.99730  0.68143  Biso   1.000  C
  H63      1.0000 0.73901  0.56530  0.52500  Biso   1.000  H
  H64      1.0000 0.86042  0.51238  0.51718  Biso   1.000  H
  C57      1.0000 0.86697  0.63519  0.57476  Biso   1.000  C
  H65      1.0000 0.27465  0.78392  0.35249  Biso   1.000  H
  H66      1.0000 0.32172  0.82018  0.41650  Biso   1.000  H
  H67      1.0000 0.23515  0.89131  0.37901  Biso   1.000  H
  H68      1.0000 0.56382  0.57911  0.35591  Biso   1.000  H
  H69      1.0000 0.53066  0.68657  0.38530  Biso   1.000  H
  C58      1.0000 0.44390  0.56461  0.42153  Biso   1.000  C
  C59      1.0000 0.99333  0.78824  0.73653  Biso   1.000  C
  C60      1.0000 0.74676  0.01342  0.77141  Biso   1.000  C
  H70      1.0000 0.32857  0.94762  0.65082  Biso   1.000  H
  H71      1.0000 0.37314  0.95981  0.71860  Biso   1.000  H
  C61      1.0000 0.45785  0.05508  0.66048  Biso   1.000  C
  C62      1.0000 0.97780  0.61930  0.59683  Biso   1.000  C
  C63      1.0000 0.79787  0.70447  0.60542  Biso   1.000  C
  H72      1.0000 0.37786  0.57001  0.39411  Biso   1.000  H
  H73      1.0000 0.42712  0.59940  0.45888  Biso   1.000  H
  H74      1.0000 0.46012  0.49240  0.42962  Biso   1.000  H
  C64      1.0000 0.94984  0.73710  0.67909  Biso   1.000  C
  H75      1.0000 0.93465  0.78122  0.76719  Biso   1.000  H
  H76      1.0000 0.06256  0.75199  0.75110  Biso   1.000  H
  H77      1.0000 0.72764  0.06033  0.73802  Biso   1.000  H
  H78      1.0000 0.77403  0.05446  0.80589  Biso   1.000  H
  C65      1.0000 0.64366  0.95163  0.78764  Biso   1.000  C
  C66      1.0000 0.64366  0.95155  0.78764  Biso   1.000  C
  H79      1.0000 0.43708  0.09489  0.62488  Biso   1.000  H
  H80      1.0000 0.51829  0.00648  0.65091  Biso   1.000  H
  H81      1.0000 0.48515  0.10129  0.69199  Biso   1.000  H
  C67      1.0000 0.02088  0.67099  0.64731  Biso   1.000  C
  H82      1.0000 0.02545  0.57217  0.57710  Biso   1.000  H
  C68      1.0000 0.83877  0.75260  0.65733  Biso   1.000  C
  O11      1.0000 0.68943  0.71851  0.58110  Biso   1.000  O
  H83      1.0000 0.61926  0.90951  0.75361  Biso   1.000  H
  H84      1.0000 0.58155  0.99769  0.79829  Biso   1.000  H
  H85      1.0000 0.66298  0.90751  0.82162  Biso   1.000  H
  O12      1.0000 0.13031  0.65864  0.67077  Biso   1.000  O
  C69      1.0000 0.62234  0.77937  0.61980  Biso   1.000  C
  C70      1.0000 0.62127  0.81378  0.58762  Biso   1.000  C
  H86      1.0000 0.78972  0.79688  0.67832  Biso   1.000  H
  C71      1.0000 0.21088  0.60148  0.63850  Biso   1.000  C
  H87      1.0000 0.65401  0.84903  0.62502  Biso   1.000  H
  H88      1.0000 0.61306  0.74682  0.65909  Biso   1.000  H
  C72      1.0000 0.51254  0.77922  0.58290  Biso   1.000  C
  H89      1.0000 0.58277  0.81177  0.62632  Biso   1.000  H
  H90      1.0000 0.67401  0.87287  0.58838  Biso   1.000  H
  C73      1.0000 0.53104  0.83067  0.53799  Biso   1.000  C
  C74      1.0000 0.25090  0.65648  0.58991  Biso   1.000  C
  H91      1.0000 0.27602  0.58328  0.66529  Biso   1.000  H
  H92      1.0000 0.17507  0.53738  0.62421  Biso   1.000  H
  H93      1.0000 0.18207  0.59546  0.59692  Biso   1.000  H
  H94      1.0000 0.21381  0.53167  0.65531  Biso   1.000  H
  C75      1.0000 0.33766  0.64406  0.63711  Biso   1.000  C
  H95      1.0000 0.52706  0.80668  0.54321  Biso   1.000  H
  H96      1.0000 0.45575  0.82172  0.60241  Biso   1.000  H
  H97      1.0000 0.48387  0.70917  0.57921  Biso   1.000  H
  H98      1.0000 0.48902  0.76703  0.53080  Biso   1.000  H
  H99      1.0000 0.56853  0.85158  0.50150  Biso   1.000  H
  H100     1.0000 0.47795  0.88421  0.55009  Biso   1.000  H
  H101     1.0000 0.18610  0.67940  0.56501  Biso   1.000  H
  H102     1.0000 0.30027  0.61251  0.56640  Biso   1.000  H
  H103     1.0000 0.29437  0.71581  0.60420  Biso   1.000  H
  H104     1.0000 0.33638  0.71558  0.62430  Biso   1.000  H
  H105     1.0000 0.38201  0.60356  0.60928  Biso   1.000  H
  H106     1.0000 0.37276  0.63936  0.67702  Biso   1.000  H
  C76      1.0000 0.60897  0.27447  0.21364  Biso   1.000  C
  C77      1.0000 0.57754  0.38810  0.21737  Biso   1.000  C
  C78      1.0000 0.57753  0.38810  0.21733  Biso   1.000  C
  H107     1.0000 0.54729  0.23451  0.23189  Biso   1.000  H
  H108     1.0000 0.67917  0.26329  0.23809  Biso   1.000  H
  C79      1.0000 0.62855  0.23127  0.15139  Biso   1.000  C
  C80      1.0000 0.62846  0.23127  0.15134  Biso   1.000  C
  C81      1.0000 0.46847  0.41850  0.23324  Biso   1.000  C
  C82      1.0000 0.66008  0.46424  0.20712  Biso   1.000  C
  C83      1.0000 0.65999  0.46424  0.20712  Biso   1.000  C
  C84      1.0000 0.60897  0.27447  0.21360  Biso   1.000  C
  C85      1.0000 0.73584  0.19293  0.13633  Biso   1.000  C
  C86      1.0000 0.53873  0.22356  0.10887  Biso   1.000  C
  C87      1.0000 0.53873  0.22356  0.10882  Biso   1.000  C
  C88      1.0000 0.43928  0.52249  0.23886  Biso   1.000  C
  H109     1.0000 0.41249  0.36797  0.24052  Biso   1.000  H
  C89      1.0000 0.43928  0.52249  0.23881  Biso   1.000  C
  H110     1.0000 0.41249  0.36797  0.24048  Biso   1.000  H
  C90      1.0000 0.63169  0.56792  0.21342  Biso   1.000  C
  C91      1.0000 0.63169  0.56792  0.21337  Biso   1.000  C
  O13      1.0000 0.76700  0.42907  0.19153  Biso   1.000  O
  H111     1.0000 0.79759  0.19857  0.16420  Biso   1.000  H
  C92      1.0000 0.75446  0.14611  0.08104  Biso   1.000  C
  C93      1.0000 0.75437  0.14611  0.08100  Biso   1.000  C
  C94      1.0000 0.55736  0.17689  0.05376  Biso   1.000  C
  O14      1.0000 0.43438  0.26205  0.12590  Biso   1.000  O
  O15      1.0000 0.43437  0.26205  0.12586  Biso   1.000  O
  O16      1.0000 0.33261  0.55782  0.25432  Biso   1.000  O
  C95      1.0000 0.52176  0.59809  0.22906  Biso   1.000  C
  O17      1.0000 0.33261  0.55782  0.25428  Biso   1.000  O
  C96      1.0000 0.52167  0.59809  0.22901  Biso   1.000  C
  H112     1.0000 0.68805  0.61853  0.20690  Biso   1.000  H
  C97      1.0000 0.85437  0.50266  0.18137  Biso   1.000  C
  C98      1.0000 0.66423  0.13670  0.03902  Biso   1.000  C
  O18      1.0000 0.85869  0.10461  0.06504  Biso   1.000  O
  H113     1.0000 0.49594  0.17241  0.02562  Biso   1.000  H
  H114     1.0000 0.49585  0.17241  0.02558  Biso   1.000  H
  C99      1.0000 0.34484  0.26830  0.08194  Biso   1.000  C
  C100     1.0000 0.24677  0.48654  0.27140  Biso   1.000  C
  C101     1.0000 0.24677  0.48654  0.27136  Biso   1.000  C
  C102     1.0000 0.49343  0.71172  0.23652  Biso   1.000  C
  C103     1.0000 0.49334  0.71172  0.23652  Biso   1.000  C
  C104     1.0000 0.95785  0.44488  0.16042  Biso   1.000  C
  H115     1.0000 0.82857  0.55242  0.15076  Biso   1.000  H
  H116     1.0000 0.87315  0.54023  0.21859  Biso   1.000  H
  C105     1.0000 0.67889  0.07907  0.98013  Biso   1.000  C
  C106     1.0000 0.95352  0.11371  0.10617  Biso   1.000  C
  H117     1.0000 0.32292  0.19918  0.06810  Biso   1.000  H
  H118     1.0000 0.37001  0.30849  0.04729  Biso   1.000  H
  C107     1.0000 0.24431  0.32060  0.11107  Biso   1.000  C
  C108     1.0000 0.14367  0.54841  0.28763  Biso   1.000  C
  H119     1.0000 0.22765  0.43971  0.23800  Biso   1.000  H
  H120     1.0000 0.27413  0.44550  0.30592  Biso   1.000  H
  H121     1.0000 0.22765  0.43971  0.23796  Biso   1.000  H
  H122     1.0000 0.27404  0.44550  0.30588  Biso   1.000  H
  H123     1.0000 0.56257  0.74798  0.25108  Biso   1.000  H
  H124     1.0000 0.43466  0.71882  0.26722  Biso   1.000  H
  C109     1.0000 0.44985  0.76286  0.17903  Biso   1.000  C
  H125     1.0000 0.43466  0.71882  0.26718  Biso   1.000  H
  H126     1.0000 0.98516  0.39867  0.19202  Biso   1.000  H
  H127     1.0000 0.93708  0.40508  0.12487  Biso   1.000  H
  H128     1.0000 0.98516  0.39867  0.19198  Biso   1.000  H
  H129     1.0000 0.01830  0.49348  0.15089  Biso   1.000  H
  H130     1.0000 0.76098  0.06526  0.97505  Biso   1.000  H
  H131     1.0000 0.63957  0.01242  0.98283  Biso   1.000  H
  C110     1.0000 0.63302  0.13523  0.92525  Biso   1.000  C
  H132     1.0000 0.76098  0.06526  0.97501  Biso   1.000  H
  H133     1.0000 0.96934  0.18661  0.11471  Biso   1.000  H
  H134     1.0000 0.93617  0.07907  0.14406  Biso   1.000  H
  H135     1.0000 0.96925  0.18661  0.11466  Biso   1.000  H
  C111     1.0000 0.05609  0.06457  0.07844  Biso   1.000  C
  H136     1.0000 0.22534  0.28388  0.14752  Biso   1.000  H
  H137     1.0000 0.17827  0.32022  0.08352  Biso   1.000  H
  H138     1.0000 0.26475  0.39127  0.12100  Biso   1.000  H
  H139     1.0000 0.22525  0.28388  0.14748  Biso   1.000  H
  H140     1.0000 0.17827  0.32022  0.08347  Biso   1.000  H
  H141     1.0000 0.26475  0.39127  0.12096  Biso   1.000  H
  H142     1.0000 0.11926  0.59053  0.25360  Biso   1.000  H
  H143     1.0000 0.08156  0.50228  0.29828  Biso   1.000  H
  H144     1.0000 0.16299  0.59253  0.32161  Biso   1.000  H
  H145     1.0000 0.16299  0.59253  0.32156  Biso   1.000  H
  C112     1.0000 0.52088  0.82905  0.14730  Biso   1.000  C
  C113     1.0000 0.33878  0.74736  0.15732  Biso   1.000  C
  C114     1.0000 0.70204  0.20443  0.89464  Biso   1.000  C
  C115     1.0000 0.52220  0.11926  0.90318  Biso   1.000  C
  C116     1.0000 0.70204  0.20443  0.89459  Biso   1.000  C
  H146     1.0000 0.03987  0.99236  0.07039  Biso   1.000  H
  H147     1.0000 0.12213  0.06997  0.10590  Biso   1.000  H
  H148     1.0000 0.07287  0.09944  0.04108  Biso   1.000  H
  H149     1.0000 0.12204  0.06997  0.10590  Biso   1.000  H
  C117     1.0000 0.47780  0.88066  0.09682  Biso   1.000  C
  O19      1.0000 0.63031  0.84139  0.17076  Biso   1.000  O
  O20      1.0000 0.63023  0.84139  0.17076  Biso   1.000  O
  H150     1.0000 0.28972  0.70308  0.17831  Biso   1.000  H
  C118     1.0000 0.29787  0.79557  0.10541  Biso   1.000  C
  H151     1.0000 0.28963  0.70308  0.17827  Biso   1.000  H
  C119     1.0000 0.47912  0.17095  0.85275  Biso   1.000  C
  H152     1.0000 0.47454  0.07221  0.92296  Biso   1.000  H
  C120     1.0000 0.47912  0.17095  0.85270  Biso   1.000  C
  H153     1.0000 0.47446  0.07221  0.92291  Biso   1.000  H
  O21      1.0000 0.81056  0.21855  0.91896  Biso   1.000  O
  C121     1.0000 0.66122  0.25264  0.84268  Biso   1.000  C
  O22      1.0000 0.81056  0.21855  0.91891  Biso   1.000  O
  H154     1.0000 0.52546  0.92779  0.07709  Biso   1.000  H
  C122     1.0000 0.36698  0.86477  0.07475  Biso   1.000  C
  C123     1.0000 0.71088  0.89848  0.13849  Biso   1.000  C
  O23      1.0000 0.18944  0.78145  0.08109  Biso   1.000  O
  C124     1.0000 0.55015  0.23714  0.82097  Biso   1.000  C
  O24      1.0000 0.36969  0.15861  0.82924  Biso   1.000  O
  C125     1.0000 0.87757  0.27941  0.88021  Biso   1.000  C
  C126     1.0000 0.87872  0.31382  0.91244  Biso   1.000  C
  H155     1.0000 0.71028  0.29692  0.82173  Biso   1.000  H
  C127     1.0000 0.32111  0.92093  0.01991  Biso   1.000  C
  C128     1.0000 0.32111  0.92093  0.01987  Biso   1.000  C
  C129     1.0000 0.75091  0.84348  0.08990  Biso   1.000  C
  H156     1.0000 0.67508  0.96259  0.12419  Biso   1.000  H
  H157     1.0000 0.77603  0.91669  0.16532  Biso   1.000  H
  H158     1.0000 0.77594  0.91669  0.16528  Biso   1.000  H
  H159     1.0000 0.68208  0.90450  0.09691  Biso   1.000  H
  H160     1.0000 0.71382  0.96829  0.15530  Biso   1.000  H
  C130     1.0000 0.83767  0.85590  0.13709  Biso   1.000  C
  C131     1.0000 0.12234  0.72059  0.11979  Biso   1.000  C
  C132     1.0000 0.12128  0.68618  0.08761  Biso   1.000  C
  C133     1.0000 0.28912  0.10152  0.86151  Biso   1.000  C
  C134     1.0000 0.50657  0.28828  0.76348  Biso   1.000  C
  H161     1.0000 0.84598  0.34899  0.87504  Biso   1.000  H
  C135     1.0000 0.98736  0.27918  0.91716  Biso   1.000  C
  H162     1.0000 0.88685  0.24678  0.84093  Biso   1.000  H
  C136     1.0000 0.98736  0.27918  0.91711  Biso   1.000  C
  H163     1.0000 0.91723  0.31181  0.87374  Biso   1.000  H
  H164     1.0000 0.82598  0.37291  0.91163  Biso   1.000  H
  C137     1.0000 0.96887  0.33071  0.96202  Biso   1.000  C
  H165     1.0000 0.23902  0.93466  0.02499  Biso   1.000  H
  C138     1.0000 0.33577  0.86330  0.96103  Biso   1.000  C
  C139     1.0000 0.33577  0.86330  0.96098  Biso   1.000  C
  H166     1.0000 0.36043  0.98758  0.01722  Biso   1.000  H
  H167     1.0000 0.36034  0.98758  0.01717  Biso   1.000  H
  H168     1.0000 0.68611  0.82057  0.06500  Biso   1.000  H
  H169     1.0000 0.80028  0.88753  0.06639  Biso   1.000  H
  H170     1.0000 0.79437  0.78423  0.10419  Biso   1.000  H
  H171     1.0000 0.83638  0.78439  0.12428  Biso   1.000  H
  H172     1.0000 0.88202  0.89640  0.10932  Biso   1.000  H
  H173     1.0000 0.87277  0.86060  0.17701  Biso   1.000  H
  H174     1.0000 0.15402  0.65101  0.12500  Biso   1.000  H
  H175     1.0000 0.15393  0.65101  0.12496  Biso   1.000  H
  H176     1.0000 0.11306  0.75322  0.15907  Biso   1.000  H
  C140     1.0000 0.01255  0.72082  0.08289  Biso   1.000  C
  H177     1.0000 0.08278  0.68819  0.12631  Biso   1.000  H
  H178     1.0000 0.17402  0.62709  0.08841  Biso   1.000  H
  C141     1.0000 0.03113  0.66929  0.03798  Biso   1.000  C
  H179     1.0000 0.22397  0.08331  0.83472  Biso   1.000  H
  C142     1.0000 0.24909  0.15652  0.91010  Biso   1.000  C
  H180     1.0000 0.32492  0.03741  0.87581  Biso   1.000  H
  H181     1.0000 0.31792  0.09550  0.90313  Biso   1.000  H
  H182     1.0000 0.28618  0.03171  0.84470  Biso   1.000  H
  C143     1.0000 0.16225  0.14410  0.86291  Biso   1.000  C
  H183     1.0000 0.43743  0.25202  0.74896  Biso   1.000  H
  C144     1.0000 0.47824  0.40191  0.77099  Biso   1.000  C
  H184     1.0000 0.43743  0.25202  0.74892  Biso   1.000  H
  H185     1.0000 0.56526  0.28118  0.73282  Biso   1.000  H
  H186     1.0000 0.97293  0.30672  0.95685  Biso   1.000  H
  H187     1.0000 0.97285  0.30672  0.95680  Biso   1.000  H
  H188     1.0000 0.04424  0.32168  0.89765  Biso   1.000  H
  H189     1.0000 0.01613  0.20921  0.92084  Biso   1.000  H
  H190     1.0000 0.04415  0.32168  0.89761  Biso   1.000  H
  H191     1.0000 0.01097  0.26699  0.96921  Biso   1.000  H
  H192     1.0000 0.93147  0.35162  0.99852  Biso   1.000  H
  H193     1.0000 0.02196  0.38417  0.94993  Biso   1.000  H
  C145     1.0000 0.24555  0.85389  0.91900  Biso   1.000  C
  C146     1.0000 0.44264  0.82311  0.94624  Biso   1.000  C
  H194     1.0000 0.02707  0.69328  0.04320  Biso   1.000  H
  H195     1.0000 0.95576  0.67832  0.10239  Biso   1.000  H
  H196     1.0000 0.98387  0.79079  0.07920  Biso   1.000  H
  H197     1.0000 0.98903  0.73301  0.03079  Biso   1.000  H
  H198     1.0000 0.97796  0.61583  0.05012  Biso   1.000  H
  H199     1.0000 0.06853  0.64838  0.00148  Biso   1.000  H
  H200     1.0000 0.19972  0.11247  0.93366  Biso   1.000  H
  H201     1.0000 0.20563  0.21577  0.89585  Biso   1.000  H
  H202     1.0000 0.31389  0.17943  0.93500  Biso   1.000  H
  H203     1.0000 0.19972  0.11247  0.93361  Biso   1.000  H
  H204     1.0000 0.20554  0.21577  0.89581  Biso   1.000  H
  H205     1.0000 0.16362  0.21561  0.87572  Biso   1.000  H
  H206     1.0000 0.11798  0.10360  0.89073  Biso   1.000  H
  H207     1.0000 0.12715  0.13940  0.82304  Biso   1.000  H
  C147     1.0000 0.56072  0.47751  0.76119  Biso   1.000  C
  C148     1.0000 0.36831  0.43208  0.78663  Biso   1.000  C
  C149     1.0000 0.36822  0.43208  0.78663  Biso   1.000  C
  O25      1.0000 0.14131  0.89539  0.93496  Biso   1.000  O
  C150     1.0000 0.26416  0.80707  0.86371  Biso   1.000  C
  C151     1.0000 0.46127  0.77644  0.89118  Biso   1.000  C
  H208     1.0000 0.50406  0.82759  0.97442  Biso   1.000  H
  C152     1.0000 0.46118  0.77644  0.89118  Biso   1.000  C
  C153     1.0000 0.53153  0.58142  0.76680  Biso   1.000  C
  C154     1.0000 0.53153  0.58142  0.76676  Biso   1.000  C
  O26      1.0000 0.66739  0.44218  0.74572  Biso   1.000  O
  C155     1.0000 0.33992  0.53576  0.79288  Biso   1.000  C
  H209     1.0000 0.31186  0.38147  0.79314  Biso   1.000  H
  C156     1.0000 0.04639  0.88629  0.89383  Biso   1.000  C
  C157     1.0000 0.37145  0.76873  0.84866  Biso   1.000  C
  H210     1.0000 0.20241  0.80136  0.83580  Biso   1.000  H
  O27      1.0000 0.56563  0.73795  0.87414  Biso   1.000  O
  C158     1.0000 0.42238  0.61190  0.78267  Biso   1.000  C
  H211     1.0000 0.58751  0.63203  0.75952  Biso   1.000  H
  C159     1.0000 0.75323  0.51346  0.72864  Biso   1.000  C
  O28      1.0000 0.23300  0.57093  0.80852  Biso   1.000  O
  O29      1.0000 0.23300  0.57093  0.80847  Biso   1.000  O
  C160     1.0000 0.94391  0.93535  0.92156  Biso   1.000  C
  H212     1.0000 0.06383  0.92093  0.85594  Biso   1.000  H
  H213     1.0000 0.03067  0.81339  0.88534  Biso   1.000  H
  H214     1.0000 0.06375  0.92093  0.85594  Biso   1.000  H
  C161     1.0000 0.39103  0.72553  0.78640  Biso   1.000  C
  C162     1.0000 0.65517  0.73170  0.91810  Biso   1.000  C
  C163     1.0000 0.65508  0.73170  0.91806  Biso   1.000  C
  H215     1.0000 0.72588  0.55450  0.69412  Biso   1.000  H
  C164     1.0000 0.85633  0.45159  0.71242  Biso   1.000  C
  H216     1.0000 0.77227  0.56029  0.76204  Biso   1.000  H
  C165     1.0000 0.85633  0.45159  0.71237  Biso   1.000  C
  C166     1.0000 0.14563  0.49734  0.81863  Biso   1.000  C
  H217     1.0000 0.87787  0.92995  0.89415  Biso   1.000  H
  H218     1.0000 0.92713  0.90056  0.95896  Biso   1.000  H
  H219     1.0000 0.92704  0.90056  0.95892  Biso   1.000  H
  H220     1.0000 0.96013  0.00756  0.92965  Biso   1.000  H
  H221     1.0000 0.96004  0.00756  0.92961  Biso   1.000  H
  H222     1.0000 0.45271  0.76549  0.76811  Biso   1.000  H
  H223     1.0000 0.32083  0.73671  0.76191  Biso   1.000  H
  C167     1.0000 0.75569  0.67940  0.88893  Biso   1.000  C
  H224     1.0000 0.62999  0.69151  0.95276  Biso   1.000  H
  H225     1.0000 0.67708  0.80082  0.93190  Biso   1.000  H
  H226     1.0000 0.62999  0.69151  0.95271  Biso   1.000  H
  H227     1.0000 0.88074  0.40947  0.74644  Biso   1.000  H
  H228     1.0000 0.91845  0.49772  0.70176  Biso   1.000  H
  H229     1.0000 0.83701  0.40747  0.67844  Biso   1.000  H
  H230     1.0000 0.88065  0.40947  0.74644  Biso   1.000  H
  H231     1.0000 0.91836  0.49772  0.70172  Biso   1.000  H
  C168     1.0000 0.04215  0.55512  0.83958  Biso   1.000  C
  H232     1.0000 0.17143  0.44758  0.84924  Biso   1.000  H
  H233     1.0000 0.12677  0.45977  0.78146  Biso   1.000  H
  C169     1.0000 0.04206  0.55512  0.83958  Biso   1.000  C
  H234     1.0000 0.12677  0.45977  0.78141  Biso   1.000  H
  H235     1.0000 0.77466  0.71612  0.85252  Biso   1.000  H
  H236     1.0000 0.82164  0.67978  0.91653  Biso   1.000  H
  H237     1.0000 0.73516  0.60873  0.87904  Biso   1.000  H
  H238     1.0000 0.98171  0.50652  0.84915  Biso   1.000  H
  H239     1.0000 0.98170  0.50652  0.84911  Biso   1.000  H
  H240     1.0000 0.06292  0.59492  0.87513  Biso   1.000  H
  H241     1.0000 0.01484  0.60133  0.80802  Biso   1.000  H
  H242     1.0000 0.01476  0.60133  0.80802  Biso   1.000  H
  Ne1      1.0000 0.50459  0.49556  0.00896  Biso   1.000  Ne
  He1      1.0000 0.67954  0.46977  0.02709  Biso   1.000  He
  He2      1.0000 0.03139  0.36031  0.96471  Biso   1.000  He
  Ar1      1.0000 0.50859  0.50110  0.00781  Biso   1.000  Ar
  Ne2      1.0000 0.99948  0.00005  0.50323  Biso   1.000  Ne
  He3      1.0000 0.83958  0.96285  0.47941  Biso   1.000  He
  He4      1.0000 0.15425  0.03901  0.51772  Biso   1.000  He
  He5      1.0000 0.60338  0.78688  0.36509  Biso   1.000  He
  Ar2      1.0000 0.00069  0.99826  0.50282  Biso   1.000  Ar
