data_image0
_cell_length_a       12.585
_cell_length_b       22.701
_cell_length_c       14.505
_cell_angle_alpha    90
_cell_angle_beta     114.15
_cell_angle_gamma    90

_symmetry_space_group_name_H-M    "P 1"
_symmetry_int_tables_number       1

loop_
  _symmetry_equiv_pos_as_xyz
  'x, y, z'

loop_
  _atom_site_label
  _atom_site_occupancy
  _atom_site_fract_x
  _atom_site_fract_y
  _atom_site_fract_z
  _atom_site_thermal_displace_type
  _atom_site_B_iso_or_equiv
  _atom_site_type_symbol
  C1       1.0000 0.59245  0.54883  0.61018  Biso   1.000  C
  C2       1.0000 0.54899  0.58024  0.52087  Biso   1.000  C
  C3       1.0000 0.70790  0.53051  0.65430  Biso   1.000  C
  H1       1.0000 0.54282  0.53967  0.64191  Biso   1.000  H
  O1       1.0000 0.43535  0.59940  0.47433  Biso   1.000  O
  C4       1.0000 0.62051  0.59279  0.47101  Biso   1.000  C
  C5       1.0000 0.78028  0.54553  0.60761  Biso   1.000  C
  C6       1.0000 0.75002  0.49399  0.75003  Biso   1.000  C
  C7       1.0000 0.36057  0.58746  0.52420  Biso   1.000  C
  C8       1.0000 0.73632  0.57548  0.51641  Biso   1.000  C
  C9       1.0000 0.57255  0.62257  0.36863  Biso   1.000  C
  O2       1.0000 0.89487  0.52733  0.65566  Biso   1.000  O
  H2       1.0000 0.81372  0.46848  0.75184  Biso   1.000  H
  H3       1.0000 0.68631  0.46848  0.74822  Biso   1.000  H
  C10      1.0000 0.79217  0.53051  0.84583  Biso   1.000  C
  H4       1.0000 0.35401  0.54491  0.53153  Biso   1.000  H
  H5       1.0000 0.39223  0.60530  0.59167  Biso   1.000  H
  C11      1.0000 0.24340  0.61306  0.46141  Biso   1.000  C
  H6       1.0000 0.78605  0.58429  0.48453  Biso   1.000  H
  H7       1.0000 0.61855  0.60997  0.33153  Biso   1.000  H
  H8       1.0000 0.49230  0.60918  0.33055  Biso   1.000  H
  C12      1.0000 0.57316  0.68931  0.37279  Biso   1.000  C
  C13      1.0000 0.97339  0.54183  0.61373  Biso   1.000  C
  C14      1.0000 0.71976  0.54553  0.89245  Biso   1.000  C
  C15      1.0000 0.90758  0.54883  0.88988  Biso   1.000  C
  H9       1.0000 0.19010  0.60438  0.49262  Biso   1.000  H
  H10      1.0000 0.25025  0.65539  0.45673  Biso   1.000  H
  H11      1.0000 0.21387  0.59610  0.39424  Biso   1.000  H
  C16      1.0000 0.66847  0.72142  0.37656  Biso   1.000  C
  C17      1.0000 0.47709  0.72014  0.37075  Biso   1.000  C
  H12      1.0000 0.94771  0.52487  0.54596  Biso   1.000  H
  H13      1.0000 0.97800  0.58469  0.60852  Biso   1.000  H
  C18      1.0000 0.09054  0.51742  0.68135  Biso   1.000  C
  O3       1.0000 0.60524  0.52733  0.84440  Biso   1.000  O
  C19      1.0000 0.76383  0.57548  0.98372  Biso   1.000  C
  C20      1.0000 0.95112  0.58024  0.97919  Biso   1.000  C
  H14      1.0000 0.95722  0.53967  0.85815  Biso   1.000  H
  O4       1.0000 0.76385  0.68913  0.38117  Biso   1.000  O
  C21      1.0000 0.66460  0.78243  0.37324  Biso   1.000  C
  C22      1.0000 0.47464  0.78129  0.37127  Biso   1.000  C
  H15      1.0000 0.41195  0.69909  0.36893  Biso   1.000  H
  H16      1.0000 0.11621  0.53517  0.74776  Biso   1.000  H
  H17      1.0000 0.08462  0.47509  0.68717  Biso   1.000  H
  H18      1.0000 0.14623  0.52619  0.65287  Biso   1.000  H
  C23      1.0000 0.52664  0.54183  0.88633  Biso   1.000  C
  H19      1.0000 0.71403  0.58429  0.01545  Biso   1.000  H
  C24      1.0000 0.87957  0.59279  0.02898  Biso   1.000  C
  O5       1.0000 0.06465  0.59940  0.02565  Biso   1.000  O
  C25      1.0000 0.86581  0.72023  0.39031  Biso   1.000  C
  H20      1.0000 0.72888  0.80349  0.37324  Biso   1.000  H
  C26      1.0000 0.56771  0.81309  0.36999  Biso   1.000  C
  O6       1.0000 0.38129  0.81331  0.37097  Biso   1.000  O
  C27      1.0000 0.40961  0.51742  0.81878  Biso   1.000  C
  H21      1.0000 0.55236  0.52487  0.95418  Biso   1.000  H
  H22      1.0000 0.52203  0.58469  0.89154  Biso   1.000  H
  C28      1.0000 0.92748  0.62257  0.13143  Biso   1.000  C
  C29      1.0000 0.13954  0.58746  0.97586  Biso   1.000  C
  H23      1.0000 0.84902  0.74530  0.33093  Biso   1.000  H
  H24      1.0000 0.89298  0.74539  0.45046  Biso   1.000  H
  C30      1.0000 0.95722  0.67579  0.39863  Biso   1.000  C
  C31      1.0000 0.56593  0.87987  0.36485  Biso   1.000  C
  C32      1.0000 0.29331  0.78393  0.39031  Biso   1.000  C
  H25      1.0000 0.38394  0.53517  0.75237  Biso   1.000  H
  H26      1.0000 0.41545  0.47509  0.81297  Biso   1.000  H
  H27      1.0000 0.35383  0.52619  0.84727  Biso   1.000  H
  H28      1.0000 0.88156  0.60997  0.16853  Biso   1.000  H
  C33      1.0000 0.92687  0.68931  0.12727  Biso   1.000  C
  H29      1.0000 0.00773  0.60918  0.16951  Biso   1.000  H
  H30      1.0000 0.14602  0.54491  0.96853  Biso   1.000  H
  H31      1.0000 0.10792  0.60530  0.90847  Biso   1.000  H
  C34      1.0000 0.25668  0.61306  0.03857  Biso   1.000  C
  H32      1.0000 0.97924  0.65407  0.46134  Biso   1.000  H
  H33      1.0000 0.92660  0.64869  0.34211  Biso   1.000  H
  H34      1.0000 0.02484  0.69578  0.39779  Biso   1.000  H
  H35      1.0000 0.48518  0.89309  0.32859  Biso   1.000  H
  H36      1.0000 0.60972  0.89269  0.32594  Biso   1.000  H
  C35      1.0000 0.61720  0.90903  0.46753  Biso   1.000  C
  H37      1.0000 0.25343  0.75530  0.33675  Biso   1.000  H
  H38      1.0000 0.32783  0.76279  0.45476  Biso   1.000  H
  C36      1.0000 0.20870  0.82891  0.39439  Biso   1.000  C
  C37      1.0000 0.83161  0.72142  0.12342  Biso   1.000  C
  C38      1.0000 0.02295  0.72014  0.12931  Biso   1.000  C
  H39      1.0000 0.30990  0.60438  0.00737  Biso   1.000  H
  H40      1.0000 0.24983  0.65539  0.04326  Biso   1.000  H
  H41      1.0000 0.28624  0.59610  0.10582  Biso   1.000  H
  C39      1.0000 0.73343  0.92582  0.51264  Biso   1.000  C
  C40      1.0000 0.54714  0.92093  0.51830  Biso   1.000  C
  H42      1.0000 0.24661  0.85406  0.45272  Biso   1.000  H
  H43      1.0000 0.18150  0.85256  0.33335  Biso   1.000  H
  H44      1.0000 0.14305  0.80930  0.39976  Biso   1.000  H
  O7       1.0000 0.73627  0.68913  0.11889  Biso   1.000  O
  C41      1.0000 0.83540  0.78243  0.12674  Biso   1.000  C
  C42      1.0000 0.02544  0.78129  0.12871  Biso   1.000  C
  H45      1.0000 0.08816  0.69909  0.13113  Biso   1.000  H
  O8       1.0000 0.79983  0.91177  0.46035  Biso   1.000  O
  C43      1.0000 0.77527  0.95639  0.60323  Biso   1.000  C
  C44      1.0000 0.58974  0.94969  0.61048  Biso   1.000  C
  H46      1.0000 0.46870  0.90908  0.48944  Biso   1.000  H
  C45      1.0000 0.63422  0.72023  0.10974  Biso   1.000  C
  H47      1.0000 0.77115  0.80349  0.12682  Biso   1.000  H
  C46      1.0000 0.93236  0.81309  0.12999  Biso   1.000  C
  O9       1.0000 0.11875  0.81331  0.12909  Biso   1.000  O
  C47      1.0000 0.91826  0.92436  0.50221  Biso   1.000  C
  H48      1.0000 0.85340  0.96859  0.63141  Biso   1.000  H
  C48      1.0000 0.70491  0.96952  0.65370  Biso   1.000  C
  O10      1.0000 0.52351  0.96234  0.66382  Biso   1.000  O
  H49      1.0000 0.65110  0.74530  0.16913  Biso   1.000  H
  H50      1.0000 0.60705  0.74539  0.04960  Biso   1.000  H
  C49      1.0000 0.54286  0.67579  0.10136  Biso   1.000  C
  C50      1.0000 0.93411  0.87987  0.13521  Biso   1.000  C
  C51      1.0000 0.20669  0.78393  0.10967  Biso   1.000  C
  H51      1.0000 0.93039  0.96687  0.51362  Biso   1.000  H
  H52      1.0000 0.95648  0.90428  0.56741  Biso   1.000  H
  C52      1.0000 0.96940  0.90392  0.43119  Biso   1.000  C
  C53      1.0000 0.75002  0.00520  0.75003  Biso   1.000  C
  C54      1.0000 0.40622  0.94115  0.62234  Biso   1.000  C
  H53      1.0000 0.52087  0.65407  0.03872  Biso   1.000  H
  H54      1.0000 0.57340  0.64869  0.15787  Biso   1.000  H
  H55      1.0000 0.47515  0.69578  0.10219  Biso   1.000  H
  H56      1.0000 0.89032  0.89269  0.17412  Biso   1.000  H
  C55      1.0000 0.88287  0.90903  0.03245  Biso   1.000  C
  H57      1.0000 0.01482  0.89309  0.17140  Biso   1.000  H
  H58      1.0000 0.24661  0.75530  0.16331  Biso   1.000  H
  H59      1.0000 0.17220  0.76279  0.04530  Biso   1.000  H
  C56      1.0000 0.29130  0.82891  0.10559  Biso   1.000  C
  H60      1.0000 0.96138  0.86146  0.42363  Biso   1.000  H
  H61      1.0000 0.92872  0.92256  0.36599  Biso   1.000  H
  H62      1.0000 0.05117  0.91437  0.45801  Biso   1.000  H
  C57      1.0000 0.79512  0.96952  0.84636  Biso   1.000  C
  H63      1.0000 0.81298  0.03079  0.75026  Biso   1.000  H
  H64      1.0000 0.68717  0.03079  0.74988  Biso   1.000  H
  H65      1.0000 0.36264  0.95846  0.55555  Biso   1.000  H
  H66      1.0000 0.40522  0.89820  0.61501  Biso   1.000  H
  C58      1.0000 0.35212  0.95820  0.69231  Biso   1.000  C
  C59      1.0000 0.76661  0.92582  0.98742  Biso   1.000  C
  C60      1.0000 0.95289  0.92093  0.98175  Biso   1.000  C
  H67      1.0000 0.25338  0.85406  0.04726  Biso   1.000  H
  H68      1.0000 0.31853  0.85256  0.16671  Biso   1.000  H
  H69      1.0000 0.35698  0.80930  0.10030  Biso   1.000  H
  C61      1.0000 0.72484  0.95639  0.89683  Biso   1.000  C
  C62      1.0000 0.91033  0.94969  0.88965  Biso   1.000  C
  H70      1.0000 0.39294  0.93886  0.75698  Biso   1.000  H
  H71      1.0000 0.27106  0.94617  0.66397  Biso   1.000  H
  H72      1.0000 0.35705  0.00057  0.70175  Biso   1.000  H
  O11      1.0000 0.70020  0.91177  0.03970  Biso   1.000  O
  H73      1.0000 0.03134  0.90908  0.01062  Biso   1.000  H
  H74      1.0000 0.64664  0.96859  0.86865  Biso   1.000  H
  O12      1.0000 0.97656  0.96234  0.83631  Biso   1.000  O
  C63      1.0000 0.58177  0.92436  0.99785  Biso   1.000  C
  C64      1.0000 0.09401  0.94115  0.87779  Biso   1.000  C
  H75      1.0000 0.56964  0.96687  0.98644  Biso   1.000  H
  H76      1.0000 0.54356  0.90428  0.93264  Biso   1.000  H
  C65      1.0000 0.53068  0.90392  0.06879  Biso   1.000  C
  H77      1.0000 0.13743  0.95846  0.94458  Biso   1.000  H
  H78      1.0000 0.09481  0.89820  0.88504  Biso   1.000  H
  C66      1.0000 0.14792  0.95820  0.80775  Biso   1.000  C
  H79      1.0000 0.44882  0.91437  0.04197  Biso   1.000  H
  H80      1.0000 0.53865  0.86146  0.07642  Biso   1.000  H
  H81      1.0000 0.57136  0.92256  0.13400  Biso   1.000  H
  H82      1.0000 0.10712  0.93886  0.74315  Biso   1.000  H
  H83      1.0000 0.22909  0.94617  0.83616  Biso   1.000  H
  H84      1.0000 0.14310  0.00057  0.79838  Biso   1.000  H
  C67      1.0000 0.40760  0.45113  0.38986  Biso   1.000  C
  C68      1.0000 0.45106  0.41976  0.47917  Biso   1.000  C
  C69      1.0000 0.29219  0.46949  0.34581  Biso   1.000  C
  H85      1.0000 0.45723  0.46029  0.35813  Biso   1.000  H
  C70      1.0000 0.37954  0.40716  0.52903  Biso   1.000  C
  O13      1.0000 0.56470  0.40056  0.52571  Biso   1.000  O
  C71      1.0000 0.21977  0.45447  0.39243  Biso   1.000  C
  C72      1.0000 0.25003  0.50597  0.25001  Biso   1.000  C
  C73      1.0000 0.42753  0.37738  0.63148  Biso   1.000  C
  C74      1.0000 0.26373  0.42452  0.48362  Biso   1.000  C
  C75      1.0000 0.63948  0.41254  0.47584  Biso   1.000  C
  O14      1.0000 0.10518  0.47267  0.34438  Biso   1.000  O
  H86      1.0000 0.18632  0.53147  0.24820  Biso   1.000  H
  H87      1.0000 0.31374  0.53147  0.25182  Biso   1.000  H
  C76      1.0000 0.20791  0.46949  0.15428  Biso   1.000  C
  C77      1.0000 0.42684  0.31069  0.62733  Biso   1.000  C
  H88      1.0000 0.38150  0.38998  0.66851  Biso   1.000  H
  H89      1.0000 0.50778  0.39078  0.66956  Biso   1.000  H
  H90      1.0000 0.21400  0.41571  0.51551  Biso   1.000  H
  H91      1.0000 0.64603  0.45509  0.46851  Biso   1.000  H
  H92      1.0000 0.60786  0.39470  0.40845  Biso   1.000  H
  C78      1.0000 0.75665  0.38690  0.53863  Biso   1.000  C
  C79      1.0000 0.02666  0.45817  0.38631  Biso   1.000  C
  C80      1.0000 0.28029  0.45447  0.10759  Biso   1.000  C
  C81      1.0000 0.09247  0.45113  0.11016  Biso   1.000  C
  C82      1.0000 0.33158  0.27858  0.62348  Biso   1.000  C
  C83      1.0000 0.52300  0.27986  0.62937  Biso   1.000  C
  H93      1.0000 0.80987  0.39558  0.50742  Biso   1.000  H
  H94      1.0000 0.74980  0.34461  0.54331  Biso   1.000  H
  H95      1.0000 0.78621  0.40390  0.60587  Biso   1.000  H
  H96      1.0000 0.05238  0.47509  0.45416  Biso   1.000  H
  H97      1.0000 0.02205  0.41531  0.39152  Biso   1.000  H
  C84      1.0000 0.90943  0.48258  0.31869  Biso   1.000  C
  C85      1.0000 0.23626  0.42452  0.01640  Biso   1.000  C
  O15      1.0000 0.39481  0.47267  0.15564  Biso   1.000  O
  C86      1.0000 0.04893  0.41976  0.02085  Biso   1.000  C
  H98      1.0000 0.04283  0.46029  0.14189  Biso   1.000  H
  C87      1.0000 0.33537  0.21752  0.62680  Biso   1.000  C
  O16      1.0000 0.23624  0.31082  0.61894  Biso   1.000  O
  C88      1.0000 0.52541  0.21871  0.62876  Biso   1.000  C
  H99      1.0000 0.58810  0.30091  0.63111  Biso   1.000  H
  H100     1.0000 0.88395  0.46478  0.25235  Biso   1.000  H
  H101     1.0000 0.91539  0.52487  0.31295  Biso   1.000  H
  H102     1.0000 0.85377  0.47377  0.34725  Biso   1.000  H
  C89      1.0000 0.12048  0.40716  0.97106  Biso   1.000  C
  H103     1.0000 0.28602  0.41571  0.98459  Biso   1.000  H
  C90      1.0000 0.47340  0.45817  0.11371  Biso   1.000  C
  O17      1.0000 0.93540  0.40056  0.97439  Biso   1.000  O
  C91      1.0000 0.43234  0.18691  0.63005  Biso   1.000  C
  H104     1.0000 0.27109  0.19651  0.62680  Biso   1.000  H
  C92      1.0000 0.13427  0.27972  0.60980  Biso   1.000  C
  O18      1.0000 0.61876  0.18669  0.62907  Biso   1.000  O
  C93      1.0000 0.07261  0.37738  0.86869  Biso   1.000  C
  C94      1.0000 0.59047  0.48258  0.18133  Biso   1.000  C
  H105     1.0000 0.44772  0.47509  0.04594  Biso   1.000  H
  H106     1.0000 0.47802  0.41531  0.10850  Biso   1.000  H
  C95      1.0000 0.86051  0.41254  0.02418  Biso   1.000  C
  C96      1.0000 0.43416  0.12008  0.63526  Biso   1.000  C
  H107     1.0000 0.15103  0.25470  0.66911  Biso   1.000  H
  H108     1.0000 0.10702  0.25461  0.54966  Biso   1.000  H
  C97      1.0000 0.04283  0.32417  0.60141  Biso   1.000  C
  C98      1.0000 0.70674  0.21603  0.60972  Biso   1.000  C
  C99      1.0000 0.07321  0.31069  0.87284  Biso   1.000  C
  H109     1.0000 0.99232  0.39078  0.83053  Biso   1.000  H
  H110     1.0000 0.11852  0.38998  0.83159  Biso   1.000  H
  H111     1.0000 0.61615  0.46478  0.24774  Biso   1.000  H
  H112     1.0000 0.58463  0.52487  0.18715  Biso   1.000  H
  H113     1.0000 0.64617  0.47377  0.15285  Biso   1.000  H
  C100     1.0000 0.74337  0.38690  0.96147  Biso   1.000  C
  H114     1.0000 0.85395  0.45509  0.03151  Biso   1.000  H
  H115     1.0000 0.89213  0.39470  0.09157  Biso   1.000  H
  C101     1.0000 0.38285  0.09092  0.53251  Biso   1.000  C
  H116     1.0000 0.51487  0.10691  0.67145  Biso   1.000  H
  H117     1.0000 0.39037  0.10731  0.67417  Biso   1.000  H
  H118     1.0000 0.02081  0.34589  0.53870  Biso   1.000  H
  H119     1.0000 0.07345  0.35131  0.65793  Biso   1.000  H
  H120     1.0000 0.97505  0.30417  0.60224  Biso   1.000  H
  H121     1.0000 0.74666  0.24470  0.66337  Biso   1.000  H
  H122     1.0000 0.67226  0.23721  0.54535  Biso   1.000  H
  C102     1.0000 0.79135  0.17105  0.60564  Biso   1.000  C
  C103     1.0000 0.97706  0.27986  0.87080  Biso   1.000  C
  C104     1.0000 0.16844  0.27858  0.87662  Biso   1.000  C
  H123     1.0000 0.69015  0.39558  0.99267  Biso   1.000  H
  H124     1.0000 0.75022  0.34461  0.95678  Biso   1.000  H
  H125     1.0000 0.71384  0.40390  0.89430  Biso   1.000  H
  C105     1.0000 0.45290  0.07907  0.48174  Biso   1.000  C
  C106     1.0000 0.26662  0.07418  0.48740  Biso   1.000  C
  H126     1.0000 0.75344  0.14590  0.54732  Biso   1.000  H
  H127     1.0000 0.81850  0.14739  0.66677  Biso   1.000  H
  H128     1.0000 0.85703  0.19070  0.60036  Biso   1.000  H
  C107     1.0000 0.97461  0.21871  0.87133  Biso   1.000  C
  H129     1.0000 0.91192  0.30091  0.86899  Biso   1.000  H
  C108     1.0000 0.16465  0.21752  0.87330  Biso   1.000  C
  O19      1.0000 0.26382  0.31082  0.88123  Biso   1.000  O
  C109     1.0000 0.41035  0.05026  0.38963  Biso   1.000  C
  H130     1.0000 0.53127  0.09088  0.51060  Biso   1.000  H
  C110     1.0000 0.22478  0.04361  0.39681  Biso   1.000  C
  O20      1.0000 0.20021  0.08819  0.53969  Biso   1.000  O
  C111     1.0000 0.06768  0.18691  0.87005  Biso   1.000  C
  O21      1.0000 0.88134  0.18669  0.87103  Biso   1.000  O
  H131     1.0000 0.22893  0.19651  0.87330  Biso   1.000  H
  C112     1.0000 0.36583  0.27972  0.89029  Biso   1.000  C
  O22      1.0000 0.47657  0.03762  0.33629  Biso   1.000  O
  C113     1.0000 0.29514  0.03048  0.34634  Biso   1.000  C
  H132     1.0000 0.14665  0.03141  0.36863  Biso   1.000  H
  C114     1.0000 0.08171  0.07564  0.49783  Biso   1.000  C
  C115     1.0000 0.06594  0.12008  0.86483  Biso   1.000  C
  C116     1.0000 0.79336  0.21603  0.89037  Biso   1.000  C
  H133     1.0000 0.34899  0.25470  0.83098  Biso   1.000  H
  H134     1.0000 0.39300  0.25461  0.95044  Biso   1.000  H
  C117     1.0000 0.45719  0.32417  0.89868  Biso   1.000  C
  C118     1.0000 0.59383  0.05881  0.37770  Biso   1.000  C
  C119     1.0000 0.25003  0.99471  0.25001  Biso   1.000  C
  H135     1.0000 0.06965  0.03308  0.48642  Biso   1.000  H
  H136     1.0000 0.04357  0.09568  0.43262  Biso   1.000  H
  C120     1.0000 0.03065  0.09608  0.56885  Biso   1.000  C
  C121     1.0000 0.11718  0.09092  0.96759  Biso   1.000  C
  H137     1.0000 0.98523  0.10691  0.82864  Biso   1.000  H
  H138     1.0000 0.10977  0.10731  0.82600  Biso   1.000  H
  H139     1.0000 0.75348  0.24470  0.83680  Biso   1.000  H
  H140     1.0000 0.82784  0.23721  0.95474  Biso   1.000  H
  C122     1.0000 0.70875  0.17105  0.89445  Biso   1.000  C
  H141     1.0000 0.47921  0.34589  0.96139  Biso   1.000  H
  H142     1.0000 0.42657  0.35131  0.84217  Biso   1.000  H
  H143     1.0000 0.52490  0.30417  0.89785  Biso   1.000  H
  H144     1.0000 0.63744  0.04150  0.44456  Biso   1.000  H
  H145     1.0000 0.59483  0.10180  0.38503  Biso   1.000  H
  C123     1.0000 0.64793  0.04180  0.30773  Biso   1.000  C
  C124     1.0000 0.20493  0.03048  0.15368  Biso   1.000  C
  H146     1.0000 0.18707  0.96921  0.24978  Biso   1.000  H
  H147     1.0000 0.31291  0.96921  0.25024  Biso   1.000  H
  H148     1.0000 0.03867  0.13850  0.57640  Biso   1.000  H
  H149     1.0000 0.07133  0.07740  0.63405  Biso   1.000  H
  H150     1.0000 0.94880  0.08559  0.54203  Biso   1.000  H
  C125     1.0000 0.23336  0.07418  0.01262  Biso   1.000  C
  C126     1.0000 0.04716  0.07907  0.01828  Biso   1.000  C
  H151     1.0000 0.74666  0.14590  0.95278  Biso   1.000  H
  H152     1.0000 0.68155  0.14739  0.83340  Biso   1.000  H
  H153     1.0000 0.64299  0.19070  0.89974  Biso   1.000  H
  H154     1.0000 0.60714  0.06110  0.24313  Biso   1.000  H
  H155     1.0000 0.72903  0.05379  0.33614  Biso   1.000  H
  H156     1.0000 0.64300  0.99934  0.29829  Biso   1.000  H
  C127     1.0000 0.27521  0.04361  0.10321  Biso   1.000  C
  C128     1.0000 0.08975  0.05026  0.11046  Biso   1.000  C
  O23      1.0000 0.29989  0.08819  0.96041  Biso   1.000  O
  H157     1.0000 0.96875  0.09088  0.98950  Biso   1.000  H
  H158     1.0000 0.35341  0.03141  0.13139  Biso   1.000  H
  O24      1.0000 0.02349  0.03762  0.16373  Biso   1.000  O
  C129     1.0000 0.41828  0.07564  0.00219  Biso   1.000  C
  C130     1.0000 0.90607  0.05881  0.12232  Biso   1.000  C
  H159     1.0000 0.43041  0.03308  0.01360  Biso   1.000  H
  H160     1.0000 0.45649  0.09568  0.06739  Biso   1.000  H
  C131     1.0000 0.46937  0.09608  0.93125  Biso   1.000  C
  H161     1.0000 0.86258  0.04150  0.05553  Biso   1.000  H
  H162     1.0000 0.90516  0.10180  0.11499  Biso   1.000  H
  C132     1.0000 0.85205  0.04180  0.19229  Biso   1.000  C
  H163     1.0000 0.55122  0.08559  0.95807  Biso   1.000  H
  H164     1.0000 0.46143  0.13850  0.92369  Biso   1.000  H
  H165     1.0000 0.42869  0.07740  0.86604  Biso   1.000  H
  H166     1.0000 0.85698  0.99934  0.20173  Biso   1.000  H
  H167     1.0000 0.89292  0.06110  0.25689  Biso   1.000  H
  H168     1.0000 0.77096  0.05379  0.16388  Biso   1.000  H
  Ne1      1.0000 0.25002  0.24965  0.25004  Biso   1.000  Ne
  He1      1.0000 0.96277  0.25237  0.25558  Biso   1.000  He
  He2      1.0000 0.52432  0.25240  0.24444  Biso   1.000  He
  Ar1      1.0000 0.25004  0.25008  0.25005  Biso   1.000  Ar
  Ne2      1.0000 0.75003  0.75033  0.75002  Biso   1.000  Ne
  He3      1.0000 0.46231  0.74764  0.75556  Biso   1.000  He
  He4      1.0000 0.02836  0.74761  0.74447  Biso   1.000  He
  Ar2      1.0000 0.75007  0.74989  0.75003  Biso   1.000  Ar
