data_image0
_cell_length_a       10.446
_cell_length_b       22.735
_cell_length_c       20.419
_cell_angle_alpha    90
_cell_angle_beta     99.22
_cell_angle_gamma    90

_symmetry_space_group_name_H-M    "P 1"
_symmetry_int_tables_number       1

loop_
  _symmetry_equiv_pos_as_xyz
  'x, y, z'

loop_
  _atom_site_label
  _atom_site_occupancy
  _atom_site_fract_x
  _atom_site_fract_y
  _atom_site_fract_z
  _atom_site_thermal_displace_type
  _atom_site_B_iso_or_equiv
  _atom_site_type_symbol
  C1       1.0000 0.53193  0.49228  0.39965  Biso   1.000  C
  C2       1.0000 0.60167  0.43382  0.42153  Biso   1.000  C
  C3       1.0000 0.60788  0.53539  0.36308  Biso   1.000  C
  H1       1.0000 0.51007  0.51216  0.43959  Biso   1.000  H
  H2       1.0000 0.44928  0.48291  0.37052  Biso   1.000  H
  C4       1.0000 0.63273  0.40062  0.36145  Biso   1.000  C
  C5       1.0000 0.51677  0.39565  0.45824  Biso   1.000  C
  C6       1.0000 0.72924  0.44667  0.46846  Biso   1.000  C
  C7       1.0000 0.52194  0.58285  0.32528  Biso   1.000  C
  H3       1.0000 0.67559  0.55456  0.39558  Biso   1.000  H
  H4       1.0000 0.65203  0.51326  0.33138  Biso   1.000  H
  N1       1.0000 0.54193  0.39481  0.30503  Biso   1.000  N
  C8       1.0000 0.74100  0.37084  0.35043  Biso   1.000  C
  N2       1.0000 0.38566  0.38883  0.43666  Biso   1.000  N
  C9       1.0000 0.54751  0.36081  0.51297  Biso   1.000  C
  H5       1.0000 0.78736  0.46914  0.44465  Biso   1.000  H
  H6       1.0000 0.71081  0.46958  0.50652  Biso   1.000  H
  H7       1.0000 0.77090  0.40950  0.48409  Biso   1.000  H
  N3       1.0000 0.46601  0.56635  0.25765  Biso   1.000  N
  H8       1.0000 0.57400  0.61905  0.32369  Biso   1.000  H
  H9       1.0000 0.45057  0.59217  0.35018  Biso   1.000  H
  C10      1.0000 0.59182  0.36226  0.25770  Biso   1.000  C
  H10      1.0000 0.46003  0.40998  0.29878  Biso   1.000  H
  C11      1.0000 0.71474  0.34687  0.28524  Biso   1.000  C
  H11      1.0000 0.81953  0.36684  0.38080  Biso   1.000  H
  C12      1.0000 0.33259  0.35034  0.47720  Biso   1.000  C
  H12      1.0000 0.34399  0.40779  0.40327  Biso   1.000  H
  C13      1.0000 0.43291  0.33261  0.52488  Biso   1.000  C
  H13      1.0000 0.63115  0.35628  0.53857  Biso   1.000  H
  C14      1.0000 0.52549  0.58087  0.20670  Biso   1.000  C
  H14      1.0000 0.38701  0.55078  0.24872  Biso   1.000  H
  C15      1.0000 0.51846  0.35443  0.18794  Biso   1.000  C
  H15      1.0000 0.77306  0.32404  0.26450  Biso   1.000  H
  C16      1.0000 0.18882  0.33741  0.46961  Biso   1.000  C
  H16      1.0000 0.42638  0.30587  0.55995  Biso   1.000  H
  C17      1.0000 0.45496  0.56662  0.13833  Biso   1.000  C
  O1       1.0000 0.63252  0.60479  0.21315  Biso   1.000  O
  C18      1.0000 0.39807  0.31660  0.18377  Biso   1.000  C
  C19      1.0000 0.60941  0.32672  0.14423  Biso   1.000  C
  C20      1.0000 0.47692  0.41544  0.15951  Biso   1.000  C
  C21      1.0000 0.13579  0.30495  0.40605  Biso   1.000  C
  C22      1.0000 0.16476  0.29910  0.52880  Biso   1.000  C
  C23      1.0000 0.11364  0.39525  0.47258  Biso   1.000  C
  N4       1.0000 0.34423  0.53640  0.13322  Biso   1.000  N
  C24      1.0000 0.50848  0.58403  0.08330  Biso   1.000  C
  N5       1.0000 0.29463  0.33301  0.21419  Biso   1.000  N
  C25      1.0000 0.36010  0.26734  0.14751  Biso   1.000  C
  H17      1.0000 0.63510  0.28735  0.16085  Biso   1.000  H
  H18      1.0000 0.56424  0.32386  0.09844  Biso   1.000  H
  H19      1.0000 0.68679  0.35135  0.14557  Biso   1.000  H
  H20      1.0000 0.55406  0.43959  0.15792  Biso   1.000  H
  H21      1.0000 0.42810  0.41100  0.11461  Biso   1.000  H
  H22      1.0000 0.42195  0.43457  0.18789  Biso   1.000  H
  N6       1.0000 0.13786  0.32835  0.34358  Biso   1.000  N
  C26      1.0000 0.07085  0.25269  0.39618  Biso   1.000  C
  H23      1.0000 0.21188  0.26184  0.52825  Biso   1.000  H
  H24      1.0000 0.19538  0.31995  0.57032  Biso   1.000  H
  H25      1.0000 0.07169  0.29114  0.52537  Biso   1.000  H
  H26      1.0000 0.02106  0.38667  0.47010  Biso   1.000  H
  H27      1.0000 0.14551  0.41557  0.51441  Biso   1.000  H
  H28      1.0000 0.12664  0.42041  0.43522  Biso   1.000  H
  C27      1.0000 0.28700  0.51964  0.07244  Biso   1.000  C
  C28      1.0000 0.44634  0.56868  0.02124  Biso   1.000  C
  H29      1.0000 0.58661  0.60611  0.08856  Biso   1.000  H
  C29      1.0000 0.19222  0.29514  0.19712  Biso   1.000  C
  H30      1.0000 0.29201  0.36530  0.23850  Biso   1.000  H
  C30      1.0000 0.23134  0.25384  0.15574  Biso   1.000  C
  H31      1.0000 0.41125  0.24583  0.12131  Biso   1.000  H
  C31      1.0000 0.07489  0.29140  0.29506  Biso   1.000  C
  H32      1.0000 0.17305  0.36380  0.33490  Biso   1.000  H
  C32      1.0000 0.03245  0.24429  0.32736  Biso   1.000  C
  H33      1.0000 0.05427  0.22644  0.43001  Biso   1.000  H
  C33      1.0000 0.16695  0.48238  0.06723  Biso   1.000  C
  C34      1.0000 0.33544  0.53481  0.01528  Biso   1.000  C
  H34      1.0000 0.47950  0.58126  0.98283  Biso   1.000  H
  C35      1.0000 0.06339  0.30451  0.22133  Biso   1.000  C
  H35      1.0000 0.18092  0.22177  0.13599  Biso   1.000  H
  H36      1.0000 0.98530  0.21157  0.30702  Biso   1.000  H
  N7       1.0000 0.11092  0.47970  0.12215  Biso   1.000  N
  O2       1.0000 0.12457  0.45731  0.01474  Biso   1.000  O
  H37      1.0000 0.29318  0.52215  0.97296  Biso   1.000  H
  C36      1.0000 0.01946  0.36917  0.20670  Biso   1.000  C
  C37      1.0000 0.96403  0.26176  0.18407  Biso   1.000  C
  C38      1.0000 0.98561  0.45115  0.12032  Biso   1.000  C
  H38      1.0000 0.15102  0.49650  0.15912  Biso   1.000  H
  H39      1.0000 0.08770  0.39573  0.22927  Biso   1.000  H
  H40      1.0000 0.93985  0.37629  0.22610  Biso   1.000  H
  C39      1.0000 0.99250  0.38505  0.13317  Biso   1.000  C
  H41      1.0000 0.99475  0.22129  0.19231  Biso   1.000  H
  H42      1.0000 0.88064  0.26659  0.19965  Biso   1.000  H
  H43      1.0000 0.95311  0.27002  0.13639  Biso   1.000  H
  H44      1.0000 0.94020  0.46989  0.15386  Biso   1.000  H
  H45      1.0000 0.93283  0.45815  0.07621  Biso   1.000  H
  H46      1.0000 0.06168  0.36807  0.11104  Biso   1.000  H
  H47      1.0000 0.90931  0.36697  0.11297  Biso   1.000  H
  C40      1.0000 0.46823  0.50772  0.60034  Biso   1.000  C
  C41      1.0000 0.39838  0.56618  0.57846  Biso   1.000  C
  C42      1.0000 0.39228  0.46457  0.63691  Biso   1.000  C
  H48      1.0000 0.48999  0.48779  0.56040  Biso   1.000  H
  H49      1.0000 0.55087  0.51704  0.62947  Biso   1.000  H
  C43      1.0000 0.27082  0.55329  0.53153  Biso   1.000  C
  C44      1.0000 0.48338  0.60431  0.54175  Biso   1.000  C
  C45      1.0000 0.36742  0.59934  0.63855  Biso   1.000  C
  C46      1.0000 0.47821  0.41711  0.67471  Biso   1.000  C
  H50      1.0000 0.32457  0.44539  0.60441  Biso   1.000  H
  H51      1.0000 0.34812  0.48674  0.66861  Biso   1.000  H
  H52      1.0000 0.21270  0.53081  0.55534  Biso   1.000  H
  H53      1.0000 0.28934  0.53042  0.49347  Biso   1.000  H
  H54      1.0000 0.22916  0.59046  0.51590  Biso   1.000  H
  N8       1.0000 0.61449  0.61113  0.56333  Biso   1.000  N
  C47      1.0000 0.45265  0.63919  0.48702  Biso   1.000  C
  N9       1.0000 0.45823  0.60519  0.69496  Biso   1.000  N
  C48      1.0000 0.25915  0.62916  0.64956  Biso   1.000  C
  N10      1.0000 0.53414  0.43360  0.74234  Biso   1.000  N
  H55      1.0000 0.42606  0.38095  0.67630  Biso   1.000  H
  H56      1.0000 0.54958  0.40783  0.64981  Biso   1.000  H
  H57      1.0000 0.65605  0.59217  0.59667  Biso   1.000  H
  C49      1.0000 0.66757  0.64966  0.52279  Biso   1.000  C
  H58      1.0000 0.36891  0.64368  0.46142  Biso   1.000  H
  C50      1.0000 0.56724  0.66739  0.47511  Biso   1.000  C
  H59      1.0000 0.54012  0.58997  0.70121  Biso   1.000  H
  C51      1.0000 0.40834  0.63770  0.74229  Biso   1.000  C
  C52      1.0000 0.28532  0.65313  0.71475  Biso   1.000  C
  H60      1.0000 0.18062  0.63312  0.61920  Biso   1.000  H
  H61      1.0000 0.61305  0.44918  0.75127  Biso   1.000  H
  C53      1.0000 0.47457  0.41909  0.79329  Biso   1.000  C
  C54      1.0000 0.81124  0.66259  0.53038  Biso   1.000  C
  H62      1.0000 0.57368  0.69408  0.44004  Biso   1.000  H
  C55      1.0000 0.48159  0.64557  0.81205  Biso   1.000  C
  H63      1.0000 0.22700  0.67596  0.73549  Biso   1.000  H
  O3       1.0000 0.36754  0.39516  0.78684  Biso   1.000  O
  C56      1.0000 0.54519  0.43338  0.86166  Biso   1.000  C
  C57      1.0000 0.86427  0.69501  0.59394  Biso   1.000  C
  C58      1.0000 0.83540  0.70086  0.47119  Biso   1.000  C
  C59      1.0000 0.88651  0.60471  0.52741  Biso   1.000  C
  C60      1.0000 0.60199  0.68340  0.81622  Biso   1.000  C
  C61      1.0000 0.39065  0.67324  0.85576  Biso   1.000  C
  C62      1.0000 0.52324  0.58452  0.84048  Biso   1.000  C
  N11      1.0000 0.65592  0.46356  0.86677  Biso   1.000  N
  C63      1.0000 0.49158  0.41597  0.91669  Biso   1.000  C
  N12      1.0000 0.86229  0.67161  0.65641  Biso   1.000  N
  C64      1.0000 0.92930  0.74726  0.60381  Biso   1.000  C
  H64      1.0000 0.78828  0.73811  0.47174  Biso   1.000  H
  H65      1.0000 0.80478  0.68001  0.42967  Biso   1.000  H
  H66      1.0000 0.92837  0.70886  0.47462  Biso   1.000  H
  H67      1.0000 0.97900  0.61328  0.52989  Biso   1.000  H
  H68      1.0000 0.85465  0.58443  0.48558  Biso   1.000  H
  H69      1.0000 0.87351  0.57955  0.56477  Biso   1.000  H
  N13      1.0000 0.70552  0.66695  0.78580  Biso   1.000  N
  C65      1.0000 0.63996  0.73266  0.85248  Biso   1.000  C
  H70      1.0000 0.36496  0.71265  0.83914  Biso   1.000  H
  H71      1.0000 0.43592  0.67609  0.90155  Biso   1.000  H
  H72      1.0000 0.31336  0.64860  0.85442  Biso   1.000  H
  H73      1.0000 0.44610  0.56037  0.84207  Biso   1.000  H
  H74      1.0000 0.57196  0.58896  0.88538  Biso   1.000  H
  H75      1.0000 0.57811  0.56543  0.81210  Biso   1.000  H
  C66      1.0000 0.71306  0.48032  0.92755  Biso   1.000  C
  C67      1.0000 0.55381  0.43127  0.97876  Biso   1.000  C
  H76      1.0000 0.41345  0.39384  0.91143  Biso   1.000  H
  H77      1.0000 0.82710  0.63620  0.66509  Biso   1.000  H
  C68      1.0000 0.92526  0.70856  0.70493  Biso   1.000  C
  H78      1.0000 0.94589  0.77356  0.56998  Biso   1.000  H
  C69      1.0000 0.96770  0.75571  0.67263  Biso   1.000  C
  H79      1.0000 0.70805  0.63470  0.76149  Biso   1.000  H
  C70      1.0000 0.80794  0.70486  0.80287  Biso   1.000  C
  C71      1.0000 0.76882  0.74616  0.84425  Biso   1.000  C
  H80      1.0000 0.58881  0.75412  0.87868  Biso   1.000  H
  C72      1.0000 0.83321  0.51757  0.93276  Biso   1.000  C
  C73      1.0000 0.66472  0.46519  0.98471  Biso   1.000  C
  H81      1.0000 0.52066  0.41874  0.01716  Biso   1.000  H
  C74      1.0000 0.93667  0.69545  0.77866  Biso   1.000  C
  H82      1.0000 0.01476  0.78843  0.69297  Biso   1.000  H
  H83      1.0000 0.81923  0.77823  0.86400  Biso   1.000  H
  O4       1.0000 0.87549  0.54269  0.98525  Biso   1.000  O
  N14      1.0000 0.88914  0.52030  0.87784  Biso   1.000  N
  H84      1.0000 0.70698  0.47785  0.02703  Biso   1.000  H
  C75      1.0000 0.98060  0.63083  0.79329  Biso   1.000  C
  C76      1.0000 0.03613  0.73824  0.81592  Biso   1.000  C
  C77      1.0000 0.01455  0.54880  0.87967  Biso   1.000  C
  H85      1.0000 0.84913  0.50350  0.84088  Biso   1.000  H
  H86      1.0000 0.91246  0.60422  0.77072  Biso   1.000  H
  H87      1.0000 0.06030  0.62366  0.77389  Biso   1.000  H
  C78      1.0000 0.00765  0.61495  0.86682  Biso   1.000  C
  H88      1.0000 0.00540  0.77871  0.80768  Biso   1.000  H
  H89      1.0000 0.11942  0.73341  0.80034  Biso   1.000  H
  H90      1.0000 0.04695  0.72998  0.86360  Biso   1.000  H
  H91      1.0000 0.05995  0.53011  0.84613  Biso   1.000  H
  H92      1.0000 0.06733  0.54181  0.92378  Biso   1.000  H
  H93      1.0000 0.93848  0.63193  0.88895  Biso   1.000  H
  H94      1.0000 0.09085  0.63303  0.88702  Biso   1.000  H
  C79      1.0000 0.73141  0.24618  0.65571  Biso   1.000  C
  C80      1.0000 0.69230  0.20488  0.69714  Biso   1.000  C
  H95      1.0000 0.68101  0.27825  0.63601  Biso   1.000  H
  C81      1.0000 0.86018  0.23264  0.64753  Biso   1.000  C
  C82      1.0000 0.56347  0.19547  0.72135  Biso   1.000  C
  N15      1.0000 0.79462  0.16697  0.71421  Biso   1.000  N
  C83      1.0000 0.89816  0.18337  0.68379  Biso   1.000  C
  H96      1.0000 0.91132  0.25415  0.62128  Biso   1.000  H
  C84      1.0000 0.51954  0.13081  0.70672  Biso   1.000  C
  C85      1.0000 0.57488  0.20858  0.79508  Biso   1.000  C
  C86      1.0000 0.46410  0.23822  0.68404  Biso   1.000  C
  H97      1.0000 0.79207  0.13468  0.73847  Biso   1.000  H
  C87      1.0000 0.01855  0.14555  0.68796  Biso   1.000  C
  C88      1.0000 0.49259  0.11493  0.63319  Biso   1.000  C
  H98      1.0000 0.58778  0.10424  0.72929  Biso   1.000  H
  H99      1.0000 0.43992  0.12369  0.72607  Biso   1.000  H
  N16      1.0000 0.63795  0.17163  0.84360  Biso   1.000  N
  C89      1.0000 0.53254  0.25573  0.82738  Biso   1.000  C
  H100     1.0000 0.49482  0.27873  0.69228  Biso   1.000  H
  H101     1.0000 0.38071  0.23338  0.69962  Biso   1.000  H
  H102     1.0000 0.45318  0.23000  0.63636  Biso   1.000  H
  C90      1.0000 0.97699  0.08454  0.65948  Biso   1.000  C
  C91      1.0000 0.09189  0.13772  0.75767  Biso   1.000  C
  C92      1.0000 0.10948  0.17326  0.64420  Biso   1.000  C
  C93      1.0000 0.48567  0.04882  0.62029  Biso   1.000  C
  H103     1.0000 0.40928  0.13305  0.61294  Biso   1.000  H
  H104     1.0000 0.56176  0.13191  0.61106  Biso   1.000  H
  H105     1.0000 0.67312  0.13618  0.83487  Biso   1.000  H
  C94      1.0000 0.63586  0.19503  0.90602  Biso   1.000  C
  C95      1.0000 0.57092  0.24728  0.89615  Biso   1.000  C
  H106     1.0000 0.48537  0.28841  0.80699  Biso   1.000  H
  H107     1.0000 0.92817  0.08898  0.61458  Biso   1.000  H
  H108     1.0000 0.92204  0.06541  0.68791  Biso   1.000  H
  H109     1.0000 0.05413  0.06039  0.65789  Biso   1.000  H
  N17      1.0000 0.04201  0.10521  0.80505  Biso   1.000  N
  C96      1.0000 0.21483  0.15311  0.78526  Biso   1.000  C
  H110     1.0000 0.13518  0.21262  0.66087  Biso   1.000  H
  H111     1.0000 0.06431  0.17612  0.59841  Biso   1.000  H
  H112     1.0000 0.18686  0.14863  0.64554  Biso   1.000  H
  N18      1.0000 0.61099  0.02028  0.62212  Biso   1.000  N
  H113     1.0000 0.44029  0.03009  0.65388  Biso   1.000  H
  H114     1.0000 0.43291  0.04183  0.57623  Biso   1.000  H
  C97      1.0000 0.68890  0.16261  0.96963  Biso   1.000  C
  H115     1.0000 0.55433  0.27354  0.92998  Biso   1.000  H
  C98      1.0000 0.13272  0.09936  0.86147  Biso   1.000  C
  H116     1.0000 0.96012  0.08999  0.79880  Biso   1.000  H
  C99      1.0000 0.24097  0.12918  0.85040  Biso   1.000  C
  H117     1.0000 0.27314  0.17598  0.76452  Biso   1.000  H
  C100     1.0000 0.66694  0.01759  0.56725  Biso   1.000  C
  H118     1.0000 0.65109  0.00352  0.65909  Biso   1.000  H
  C101     1.0000 0.83256  0.14968  0.97717  Biso   1.000  C
  C102     1.0000 0.61373  0.10473  0.97260  Biso   1.000  C
  C103     1.0000 0.66473  0.20088  0.02877  Biso   1.000  C
  C104     1.0000 0.10176  0.06615  0.92155  Biso   1.000  C
  H119     1.0000 0.31951  0.13314  0.88077  Biso   1.000  H
  O5       1.0000 0.62465  0.04267  0.51476  Biso   1.000  O
  C105     1.0000 0.78708  0.98029  0.57246  Biso   1.000  C
  N19      1.0000 0.88575  0.11115  0.93668  Biso   1.000  N
  C106     1.0000 0.93279  0.16741  0.02485  Biso   1.000  C
  H120     1.0000 0.52113  0.11331  0.97007  Biso   1.000  H
  H121     1.0000 0.62663  0.07957  0.93524  Biso   1.000  H
  H122     1.0000 0.64548  0.08441  0.01438  Biso   1.000  H
  H123     1.0000 0.71185  0.23814  0.02822  Biso   1.000  H
  H124     1.0000 0.69537  0.18003  0.07034  Biso   1.000  H
  H125     1.0000 0.57168  0.20884  0.02539  Biso   1.000  H
  C107     1.0000 0.03201  0.00774  0.89967  Biso   1.000  C
  C108     1.0000 0.01675  0.10433  0.95821  Biso   1.000  C
  C109     1.0000 0.22933  0.05331  0.96848  Biso   1.000  C
  N20      1.0000 0.84432  0.96354  0.63324  Biso   1.000  N
  C110     1.0000 0.83551  0.96521  0.51525  Biso   1.000  C
  H126     1.0000 0.84408  0.09219  0.90329  Biso   1.000  H
  C111     1.0000 0.04730  0.13921  0.01299  Biso   1.000  C
  H127     1.0000 0.92635  0.19411  0.05993  Biso   1.000  H
  C112     1.0000 0.10796  0.96455  0.86310  Biso   1.000  C
  H128     1.0000 0.94935  0.01707  0.87050  Biso   1.000  H
  H129     1.0000 0.01014  0.98777  0.93956  Biso   1.000  H
  H130     1.0000 0.28744  0.03083  0.94467  Biso   1.000  H
  H131     1.0000 0.27098  0.09048  0.98411  Biso   1.000  H
  H132     1.0000 0.21061  0.03044  0.00654  Biso   1.000  H
  C113     1.0000 0.95495  0.93336  0.63835  Biso   1.000  C
  H133     1.0000 0.79315  0.97779  0.47293  Biso   1.000  H
  C114     1.0000 0.94633  0.93125  0.52126  Biso   1.000  C
  H134     1.0000 0.13105  0.14370  0.03859  Biso   1.000  H
  C115     1.0000 0.02203  0.91713  0.82530  Biso   1.000  C
  H135     1.0000 0.17558  0.94537  0.89560  Biso   1.000  H
  H136     1.0000 0.15202  0.98667  0.83140  Biso   1.000  H
  C116     1.0000 0.00856  0.91599  0.58332  Biso   1.000  C
  C117     1.0000 0.02556  0.91907  0.70667  Biso   1.000  C
  H137     1.0000 0.97938  0.91867  0.48280  Biso   1.000  H
  N21      1.0000 0.96608  0.93363  0.75762  Biso   1.000  N
  H138     1.0000 0.95064  0.90781  0.85015  Biso   1.000  H
  H139     1.0000 0.07407  0.88089  0.82366  Biso   1.000  H
  H140     1.0000 0.08670  0.89382  0.58858  Biso   1.000  H
  O6       1.0000 0.13261  0.89514  0.71317  Biso   1.000  O
  H141     1.0000 0.88708  0.94915  0.74869  Biso   1.000  H
  C118     1.0000 0.26875  0.75382  0.34428  Biso   1.000  C
  C119     1.0000 0.30785  0.79512  0.30285  Biso   1.000  C
  H142     1.0000 0.31915  0.72175  0.36398  Biso   1.000  H
  C120     1.0000 0.13997  0.76732  0.35246  Biso   1.000  C
  C121     1.0000 0.43659  0.80453  0.27864  Biso   1.000  C
  N22      1.0000 0.20544  0.83303  0.28578  Biso   1.000  N
  C122     1.0000 0.10190  0.81658  0.31620  Biso   1.000  C
  H143     1.0000 0.08884  0.74581  0.37871  Biso   1.000  H
  C123     1.0000 0.42518  0.79138  0.20491  Biso   1.000  C
  C124     1.0000 0.53606  0.76173  0.31595  Biso   1.000  C
  C125     1.0000 0.48052  0.86914  0.29327  Biso   1.000  C
  H144     1.0000 0.20808  0.86527  0.26152  Biso   1.000  H
  C126     1.0000 0.98161  0.85441  0.31203  Biso   1.000  C
  C127     1.0000 0.46762  0.74427  0.17261  Biso   1.000  C
  N23      1.0000 0.36221  0.82837  0.15639  Biso   1.000  N
  H145     1.0000 0.50533  0.72127  0.30771  Biso   1.000  H
  H146     1.0000 0.61935  0.76657  0.30037  Biso   1.000  H
  H147     1.0000 0.54688  0.77000  0.36363  Biso   1.000  H
  H148     1.0000 0.41237  0.89571  0.27070  Biso   1.000  H
  H149     1.0000 0.56023  0.87627  0.27392  Biso   1.000  H
  C128     1.0000 0.50757  0.88502  0.36680  Biso   1.000  C
  C129     1.0000 0.02317  0.91542  0.34051  Biso   1.000  C
  C130     1.0000 0.90827  0.86224  0.24232  Biso   1.000  C
  C131     1.0000 0.89068  0.82674  0.35579  Biso   1.000  C
  C132     1.0000 0.42923  0.75267  0.10384  Biso   1.000  C
  H150     1.0000 0.51469  0.71155  0.19300  Biso   1.000  H
  C133     1.0000 0.36430  0.80493  0.09397  Biso   1.000  C
  H151     1.0000 0.32704  0.86378  0.16512  Biso   1.000  H
  H152     1.0000 0.59078  0.86695  0.38705  Biso   1.000  H
  H153     1.0000 0.43839  0.86804  0.38893  Biso   1.000  H
  C134     1.0000 0.51448  0.95113  0.37970  Biso   1.000  C
  H154     1.0000 0.07198  0.91102  0.38541  Biso   1.000  H
  H155     1.0000 0.07802  0.93455  0.31208  Biso   1.000  H
  H156     1.0000 0.94603  0.93956  0.34210  Biso   1.000  H
  N24      1.0000 0.95814  0.89479  0.19494  Biso   1.000  N
  C135     1.0000 0.78523  0.84684  0.21473  Biso   1.000  C
  H157     1.0000 0.86487  0.78733  0.33912  Biso   1.000  H
  H158     1.0000 0.93585  0.82384  0.40158  Biso   1.000  H
  H159     1.0000 0.81329  0.85137  0.35445  Biso   1.000  H
  H160     1.0000 0.44582  0.72641  0.07001  Biso   1.000  H
  C136     1.0000 0.31125  0.83739  0.03036  Biso   1.000  C
  N25      1.0000 0.38907  0.97968  0.37787  Biso   1.000  N
  H161     1.0000 0.55987  0.96987  0.34611  Biso   1.000  H
  H162     1.0000 0.56724  0.95817  0.42376  Biso   1.000  H
  C137     1.0000 0.86734  0.90059  0.13853  Biso   1.000  C
  H163     1.0000 0.04004  0.90996  0.20119  Biso   1.000  H
  C138     1.0000 0.75909  0.87082  0.14959  Biso   1.000  C
  H164     1.0000 0.72701  0.82402  0.23547  Biso   1.000  H
  C139     1.0000 0.16750  0.85032  0.02282  Biso   1.000  C
  C140     1.0000 0.38643  0.89527  0.02739  Biso   1.000  C
  C141     1.0000 0.33543  0.79908  0.97122  Biso   1.000  C
  H165     1.0000 0.34906  0.99648  0.34090  Biso   1.000  H
  C142     1.0000 0.33312  0.98236  0.43274  Biso   1.000  C
  C143     1.0000 0.89830  0.93380  0.07844  Biso   1.000  C
  H166     1.0000 0.68055  0.86681  0.11922  Biso   1.000  H
  N26      1.0000 0.11441  0.88881  0.06331  Biso   1.000  N
  C144     1.0000 0.06727  0.83259  0.97514  Biso   1.000  C
  H167     1.0000 0.47893  0.88665  0.02992  Biso   1.000  H
  H168     1.0000 0.37343  0.92039  0.06475  Biso   1.000  H
  H169     1.0000 0.35467  0.91555  0.98561  Biso   1.000  H
  H170     1.0000 0.28831  0.76186  0.97177  Biso   1.000  H
  H171     1.0000 0.30479  0.81997  0.92965  Biso   1.000  H
  H172     1.0000 0.42838  0.79112  0.97460  Biso   1.000  H
  O7       1.0000 0.37550  0.95729  0.48523  Biso   1.000  O
  C145     1.0000 0.21307  0.01962  0.42753  Biso   1.000  C
  C146     1.0000 0.98331  0.89567  0.04178  Biso   1.000  C
  C147     1.0000 0.77083  0.94669  0.03151  Biso   1.000  C
  C148     1.0000 0.96814  0.99226  0.10032  Biso   1.000  C
  H173     1.0000 0.15598  0.90776  0.09670  Biso   1.000  H
  C149     1.0000 0.95275  0.86079  0.98700  Biso   1.000  C
  H174     1.0000 0.07370  0.80585  0.94007  Biso   1.000  H
  N27      1.0000 0.15584  0.03642  0.36675  Biso   1.000  N
  C150     1.0000 0.16465  0.03479  0.48474  Biso   1.000  C
  H175     1.0000 0.78945  0.96956  0.99345  Biso   1.000  H
  H176     1.0000 0.71262  0.96912  0.05532  Biso   1.000  H
  H177     1.0000 0.72917  0.90948  0.01588  Biso   1.000  H
  H178     1.0000 0.05080  0.98289  0.12950  Biso   1.000  H
  C151     1.0000 0.89219  0.03541  0.13689  Biso   1.000  C
  H179     1.0000 0.98992  0.01214  0.06043  Biso   1.000  H
  H180     1.0000 0.86901  0.85626  0.96140  Biso   1.000  H
  C152     1.0000 0.04511  0.06659  0.36164  Biso   1.000  C
  H181     1.0000 0.20700  0.02212  0.52706  Biso   1.000  H
  C153     1.0000 0.05373  0.06866  0.47874  Biso   1.000  C
  C154     1.0000 0.97813  0.08287  0.17469  Biso   1.000  C
  H182     1.0000 0.82448  0.05459  0.10439  Biso   1.000  H
  H183     1.0000 0.84803  0.01328  0.16859  Biso   1.000  H
  C155     1.0000 0.99150  0.08401  0.41667  Biso   1.000  C
  C156     1.0000 0.97450  0.08084  0.29332  Biso   1.000  C
  H184     1.0000 0.02068  0.08124  0.51719  Biso   1.000  H
  H185     1.0000 0.92599  0.11902  0.17633  Biso   1.000  H
  N28      1.0000 0.03407  0.06637  0.24237  Biso   1.000  N
  H186     1.0000 0.04951  0.09215  0.14984  Biso   1.000  H
  H187     1.0000 0.91346  0.10609  0.41141  Biso   1.000  H
  O8       1.0000 0.86745  0.10482  0.28682  Biso   1.000  O
  H188     1.0000 0.11307  0.05080  0.25130  Biso   1.000  H
  Ne1      1.0000 0.34989  0.40710  0.26583  Biso   1.000  Ne
  He1      1.0000 0.13470  0.51625  0.31502  Biso   1.000  He
  He2      1.0000 0.28681  0.42239  0.31200  Biso   1.000  He
  Ar1      1.0000 0.33931  0.41253  0.26980  Biso   1.000  Ar
  Ne2      1.0000 0.84994  0.09288  0.76584  Biso   1.000  Ne
  He3      1.0000 0.77143  0.04216  0.74103  Biso   1.000  He
  He4      1.0000 0.78660  0.07726  0.81193  Biso   1.000  He
  Ar2      1.0000 0.83936  0.08744  0.76982  Biso   1.000  Ar
  Ne3      1.0000 0.65023  0.59287  0.73416  Biso   1.000  Ne
  He5      1.0000 0.71162  0.57936  0.68739  Biso   1.000  He
  He6      1.0000 0.71467  0.57620  0.68836  Biso   1.000  He
  Ar3      1.0000 0.66083  0.58744  0.73022  Biso   1.000  Ar
  Ne4      1.0000 0.15018  0.90709  0.23415  Biso   1.000  Ne
  He7      1.0000 0.21412  0.92328  0.18823  Biso   1.000  He
  He8      1.0000 0.20742  0.91635  0.18611  Biso   1.000  He
  Ar4      1.0000 0.16081  0.91255  0.23021  Biso   1.000  Ar
