data_image0
_cell_length_a       12.327
_cell_length_b       13.758
_cell_length_c       17.119
_cell_angle_alpha    82.35
_cell_angle_beta     83.03
_cell_angle_gamma    66.04

_symmetry_space_group_name_H-M    "P 1"
_symmetry_int_tables_number       1

loop_
  _symmetry_equiv_pos_as_xyz
  'x, y, z'

loop_
  _atom_site_label
  _atom_site_occupancy
  _atom_site_fract_x
  _atom_site_fract_y
  _atom_site_fract_z
  _atom_site_thermal_displace_type
  _atom_site_B_iso_or_equiv
  _atom_site_type_symbol
  C1       1.0000 0.73405  0.34856  0.48180  Biso   1.000  C
  C2       1.0000 0.80229  0.25898  0.54309  Biso   1.000  C
  H1       1.0000 0.69503  0.41577  0.50663  Biso   1.000  H
  H2       1.0000 0.78972  0.35643  0.43795  Biso   1.000  H
  H3       1.0000 0.67386  0.33078  0.46177  Biso   1.000  H
  C3       1.0000 0.71526  0.24627  0.61041  Biso   1.000  C
  C4       1.0000 0.90142  0.28208  0.56957  Biso   1.000  C
  C5       1.0000 0.85867  0.15409  0.50219  Biso   1.000  C
  N1       1.0000 0.64228  0.32939  0.65432  Biso   1.000  N
  C6       1.0000 0.68396  0.16200  0.63624  Biso   1.000  C
  N2       1.0000 0.88162  0.37559  0.60160  Biso   1.000  N
  C7       1.0000 0.02268  0.22648  0.56325  Biso   1.000  C
  H4       1.0000 0.79569  0.13851  0.48364  Biso   1.000  H
  H5       1.0000 0.91248  0.16187  0.45704  Biso   1.000  H
  H6       1.0000 0.90347  0.09530  0.53984  Biso   1.000  H
  C8       1.0000 0.56517  0.29864  0.70693  Biso   1.000  C
  H7       1.0000 0.64608  0.39600  0.64901  Biso   1.000  H
  C9       1.0000 0.59028  0.19485  0.69605  Biso   1.000  C
  H8       1.0000 0.71921  0.09326  0.61727  Biso   1.000  H
  C10      1.0000 0.98745  0.37968  0.61538  Biso   1.000  C
  H9       1.0000 0.81207  0.42499  0.61047  Biso   1.000  H
  H10      1.0000 0.06373  0.15875  0.54321  Biso   1.000  H
  C11      1.0000 0.07603  0.28718  0.59173  Biso   1.000  C
  C12      1.0000 0.47709  0.37206  0.76550  Biso   1.000  C
  H11      1.0000 0.55127  0.15208  0.72389  Biso   1.000  H
  C13      1.0000 0.99284  0.47238  0.65131  Biso   1.000  C
  H12      1.0000 0.15907  0.26726  0.59398  Biso   1.000  H
  C14      1.0000 0.54132  0.38020  0.83275  Biso   1.000  C
  C15      1.0000 0.38791  0.32277  0.79901  Biso   1.000  C
  C16      1.0000 0.40990  0.48508  0.72347  Biso   1.000  C
  C17      1.0000 0.96316  0.46325  0.74032  Biso   1.000  C
  C18      1.0000 0.90536  0.57964  0.61283  Biso   1.000  C
  C19      1.0000 0.12113  0.46762  0.63600  Biso   1.000  C
  N3       1.0000 0.60877  0.44017  0.82383  Biso   1.000  N
  C20      1.0000 0.54758  0.33569  0.90953  Biso   1.000  C
  H13      1.0000 0.33189  0.36707  0.83855  Biso   1.000  H
  H14      1.0000 0.34417  0.31906  0.75616  Biso   1.000  H
  H15      1.0000 0.43070  0.25063  0.82383  Biso   1.000  H
  H16      1.0000 0.37360  0.47723  0.67743  Biso   1.000  H
  H17      1.0000 0.46872  0.51611  0.70308  Biso   1.000  H
  C21      1.0000 0.31231  0.56383  0.77501  Biso   1.000  C
  N4       1.0000 0.84788  0.48513  0.77152  Biso   1.000  N
  C22      1.0000 0.03247  0.43460  0.80226  Biso   1.000  C
  C23      1.0000 0.90521  0.68099  0.64008  Biso   1.000  C
  H18      1.0000 0.82382  0.58136  0.62324  Biso   1.000  H
  H19      1.0000 0.92410  0.58115  0.55485  Biso   1.000  H
  H20      1.0000 0.17721  0.39809  0.65769  Biso   1.000  H
  H21      1.0000 0.14025  0.47704  0.57903  Biso   1.000  H
  H22      1.0000 0.12727  0.52454  0.66165  Biso   1.000  H
  C24      1.0000 0.65756  0.43430  0.89381  Biso   1.000  C
  H23      1.0000 0.61514  0.47796  0.78116  Biso   1.000  H
  C25      1.0000 0.62048  0.36859  0.94735  Biso   1.000  C
  H24      1.0000 0.50923  0.29034  0.93317  Biso   1.000  H
  H25      1.0000 0.34068  0.55576  0.82814  Biso   1.000  H
  H26      1.0000 0.24144  0.54603  0.78128  Biso   1.000  H
  C26      1.0000 0.27638  0.67961  0.74085  Biso   1.000  C
  C27      1.0000 0.84363  0.47065  0.85303  Biso   1.000  C
  H27      1.0000 0.78611  0.50997  0.74197  Biso   1.000  H
  C28      1.0000 0.95787  0.43924  0.87330  Biso   1.000  C
  H28      1.0000 0.11615  0.41466  0.79883  Biso   1.000  H
  C29      1.0000 0.79477  0.78039  0.61798  Biso   1.000  C
  H29      1.0000 0.90891  0.67182  0.69818  Biso   1.000  H
  H30      1.0000 0.97717  0.69155  0.61597  Biso   1.000  H
  C30      1.0000 0.72721  0.50009  0.90386  Biso   1.000  C
  H31      1.0000 0.64033  0.34880  0.00072  Biso   1.000  H
  N5       1.0000 0.35323  0.72970  0.75953  Biso   1.000  N
  H32      1.0000 0.19383  0.72138  0.76118  Biso   1.000  H
  H33      1.0000 0.27722  0.68274  0.68269  Biso   1.000  H
  H34      1.0000 0.98302  0.42342  0.92549  Biso   1.000  H
  N6       1.0000 0.69391  0.79891  0.67661  Biso   1.000  N
  H35      1.0000 0.77088  0.77288  0.56668  Biso   1.000  H
  H36      1.0000 0.81550  0.84353  0.61106  Biso   1.000  H
  C31      1.0000 0.75240  0.48647  0.99121  Biso   1.000  C
  C32      1.0000 0.64880  0.61897  0.88187  Biso   1.000  C
  C33      1.0000 0.32595  0.78574  0.82218  Biso   1.000  C
  H37      1.0000 0.41811  0.72000  0.72696  Biso   1.000  H
  C34      1.0000 0.68279  0.85331  0.73778  Biso   1.000  C
  H38      1.0000 0.63911  0.77195  0.66898  Biso   1.000  H
  H39      1.0000 0.79688  0.52913  0.99866  Biso   1.000  H
  H40      1.0000 0.67676  0.51054  0.02395  Biso   1.000  H
  H41      1.0000 0.79933  0.41110  0.00693  Biso   1.000  H
  H42      1.0000 0.63119  0.62924  0.82637  Biso   1.000  H
  H43      1.0000 0.57430  0.63997  0.91556  Biso   1.000  H
  H44      1.0000 0.69148  0.66307  0.88985  Biso   1.000  H
  O1       1.0000 0.23901  0.79494  0.86952  Biso   1.000  O
  C35      1.0000 0.40579  0.83998  0.83364  Biso   1.000  C
  O2       1.0000 0.75834  0.88717  0.75007  Biso   1.000  O
  C36      1.0000 0.57405  0.87236  0.79416  Biso   1.000  C
  N7       1.0000 0.49936  0.82893  0.78080  Biso   1.000  N
  C37      1.0000 0.38271  0.89690  0.89889  Biso   1.000  C
  C38      1.0000 0.55730  0.93050  0.85846  Biso   1.000  C
  H45      1.0000 0.31553  0.90378  0.93482  Biso   1.000  H
  C39      1.0000 0.45878  0.94324  0.91059  Biso   1.000  C
  H46      1.0000 0.61200  0.96031  0.86627  Biso   1.000  H
  H47      1.0000 0.44348  0.98398  0.95439  Biso   1.000  H
  C40      1.0000 0.26611  0.65136  0.51815  Biso   1.000  C
  C41      1.0000 0.19784  0.74102  0.45686  Biso   1.000  C
  H48      1.0000 0.30513  0.58414  0.49339  Biso   1.000  H
  H49      1.0000 0.21041  0.64357  0.56207  Biso   1.000  H
  H50      1.0000 0.32627  0.66921  0.53825  Biso   1.000  H
  C42      1.0000 0.09862  0.71791  0.43044  Biso   1.000  C
  C43      1.0000 0.28487  0.75372  0.38954  Biso   1.000  C
  C44      1.0000 0.14145  0.84591  0.49782  Biso   1.000  C
  N8       1.0000 0.11843  0.62441  0.39835  Biso   1.000  N
  C45      1.0000 0.97745  0.77352  0.43671  Biso   1.000  C
  N9       1.0000 0.35785  0.67060  0.34569  Biso   1.000  N
  C46      1.0000 0.31617  0.83800  0.36372  Biso   1.000  C
  H51      1.0000 0.20448  0.86141  0.51632  Biso   1.000  H
  H52      1.0000 0.08764  0.83812  0.54298  Biso   1.000  H
  H53      1.0000 0.09666  0.90470  0.46011  Biso   1.000  H
  C47      1.0000 0.01268  0.62032  0.38458  Biso   1.000  C
  H54      1.0000 0.18806  0.57501  0.38949  Biso   1.000  H
  C48      1.0000 0.92409  0.71281  0.40828  Biso   1.000  C
  H55      1.0000 0.93643  0.84117  0.45680  Biso   1.000  H
  C49      1.0000 0.43499  0.70128  0.29303  Biso   1.000  C
  H56      1.0000 0.35404  0.60399  0.35101  Biso   1.000  H
  C50      1.0000 0.40988  0.80506  0.30396  Biso   1.000  C
  H57      1.0000 0.28092  0.90673  0.38275  Biso   1.000  H
  C51      1.0000 0.00729  0.52761  0.34871  Biso   1.000  C
  H58      1.0000 0.84106  0.73274  0.40598  Biso   1.000  H
  C52      1.0000 0.52307  0.62785  0.23452  Biso   1.000  C
  H59      1.0000 0.44889  0.84783  0.27613  Biso   1.000  H
  C53      1.0000 0.09480  0.42027  0.38718  Biso   1.000  C
  C54      1.0000 0.03700  0.53666  0.25970  Biso   1.000  C
  C55      1.0000 0.87900  0.53238  0.36395  Biso   1.000  C
  C56      1.0000 0.59022  0.51491  0.27654  Biso   1.000  C
  C57      1.0000 0.45881  0.61980  0.16720  Biso   1.000  C
  C58      1.0000 0.61222  0.67722  0.20095  Biso   1.000  C
  C59      1.0000 0.09492  0.31901  0.35988  Biso   1.000  C
  H60      1.0000 0.17635  0.41856  0.37672  Biso   1.000  H
  H61      1.0000 0.07607  0.41877  0.44510  Biso   1.000  H
  N10      1.0000 0.15225  0.51487  0.22849  Biso   1.000  N
  C60      1.0000 0.96766  0.56540  0.19770  Biso   1.000  C
  H62      1.0000 0.82292  0.60191  0.34226  Biso   1.000  H
  H63      1.0000 0.85991  0.52287  0.42099  Biso   1.000  H
  H64      1.0000 0.87286  0.47546  0.33830  Biso   1.000  H
  C61      1.0000 0.68786  0.43609  0.22494  Biso   1.000  C
  H65      1.0000 0.62648  0.52268  0.32258  Biso   1.000  H
  H66      1.0000 0.53144  0.48381  0.29693  Biso   1.000  H
  N11      1.0000 0.39136  0.55982  0.17613  Biso   1.000  N
  C62      1.0000 0.45255  0.66431  0.09043  Biso   1.000  C
  H67      1.0000 0.66824  0.63292  0.16147  Biso   1.000  H
  H68      1.0000 0.65600  0.68086  0.24380  Biso   1.000  H
  H69      1.0000 0.56946  0.74928  0.17618  Biso   1.000  H
  C63      1.0000 0.20535  0.21960  0.38204  Biso   1.000  C
  H70      1.0000 0.09122  0.32818  0.30178  Biso   1.000  H
  H71      1.0000 0.02291  0.30836  0.38399  Biso   1.000  H
  C64      1.0000 0.15654  0.52927  0.14693  Biso   1.000  C
  H72      1.0000 0.21402  0.49002  0.25798  Biso   1.000  H
  C65      1.0000 0.04221  0.56068  0.12666  Biso   1.000  C
  H73      1.0000 0.88402  0.58526  0.20113  Biso   1.000  H
  C66      1.0000 0.72375  0.32039  0.25911  Biso   1.000  C
  H74      1.0000 0.65945  0.44423  0.17187  Biso   1.000  H
  H75      1.0000 0.75869  0.45397  0.21868  Biso   1.000  H
  C67      1.0000 0.34256  0.56570  0.10621  Biso   1.000  C
  H76      1.0000 0.38503  0.52196  0.21880  Biso   1.000  H
  C68      1.0000 0.37965  0.63140  0.05266  Biso   1.000  C
  H77      1.0000 0.49090  0.70965  0.06679  Biso   1.000  H
  N12      1.0000 0.30621  0.20108  0.32341  Biso   1.000  N
  H78      1.0000 0.22928  0.22703  0.43334  Biso   1.000  H
  H79      1.0000 0.18466  0.15638  0.38895  Biso   1.000  H
  C69      1.0000 0.27292  0.49990  0.09616  Biso   1.000  C
  H80      1.0000 0.01711  0.57658  0.07447  Biso   1.000  H
  N13      1.0000 0.64689  0.27030  0.24049  Biso   1.000  N
  H81      1.0000 0.80633  0.27854  0.23883  Biso   1.000  H
  H82      1.0000 0.72295  0.31718  0.31726  Biso   1.000  H
  H83      1.0000 0.35984  0.65112  0.99923  Biso   1.000  H
  C70      1.0000 0.31734  0.14669  0.26218  Biso   1.000  C
  H84      1.0000 0.36106  0.22797  0.33097  Biso   1.000  H
  C71      1.0000 0.24773  0.51352  0.00875  Biso   1.000  C
  C72      1.0000 0.35133  0.38103  0.11809  Biso   1.000  C
  C73      1.0000 0.67421  0.21418  0.17778  Biso   1.000  C
  H85      1.0000 0.58202  0.28000  0.27299  Biso   1.000  H
  O3       1.0000 0.24178  0.11282  0.24994  Biso   1.000  O
  C74      1.0000 0.42612  0.12756  0.20580  Biso   1.000  C
  H86      1.0000 0.20321  0.47079  0.00130  Biso   1.000  H
  H87      1.0000 0.32333  0.48938  0.97600  Biso   1.000  H
  H88      1.0000 0.20079  0.58890  0.99309  Biso   1.000  H
  H89      1.0000 0.36893  0.37075  0.17364  Biso   1.000  H
  H90      1.0000 0.42582  0.36002  0.08446  Biso   1.000  H
  H91      1.0000 0.30865  0.33693  0.11011  Biso   1.000  H
  C75      1.0000 0.59434  0.16001  0.16637  Biso   1.000  C
  O4       1.0000 0.76115  0.20497  0.13050  Biso   1.000  O
  N14      1.0000 0.50080  0.17098  0.21921  Biso   1.000  N
  C76      1.0000 0.44283  0.06950  0.14149  Biso   1.000  C
  C77      1.0000 0.61742  0.10310  0.10112  Biso   1.000  C
  C78      1.0000 0.54138  0.05668  0.08942  Biso   1.000  C
  H92      1.0000 0.38813  0.03969  0.13369  Biso   1.000  H
  H93      1.0000 0.68464  0.09614  0.06513  Biso   1.000  H
  H94      1.0000 0.55669  0.01594  0.04557  Biso   1.000  H
  Ne1      1.0000 0.32047  0.47680  0.25818  Biso   1.000  Ne
  He1      1.0000 0.36466  0.40994  0.26730  Biso   1.000  He
  He2      1.0000 0.32835  0.47877  0.33159  Biso   1.000  He
  Ar1      1.0000 0.33239  0.46292  0.26762  Biso   1.000  Ar
  Ne2      1.0000 0.67967  0.52317  0.74181  Biso   1.000  Ne
  He3      1.0000 0.67192  0.52103  0.66844  Biso   1.000  He
  He4      1.0000 0.67573  0.51546  0.67048  Biso   1.000  He
  Ar2      1.0000 0.66774  0.53706  0.73236  Biso   1.000  Ar
