data_image0
_cell_length_a       8.451
_cell_length_b       10.722
_cell_length_c       10.054
_cell_angle_alpha    93.05
_cell_angle_beta     102.59
_cell_angle_gamma    95.33

_symmetry_space_group_name_H-M    "P 1"
_symmetry_int_tables_number       1

loop_
  _symmetry_equiv_pos_as_xyz
  'x, y, z'

loop_
  _atom_site_label
  _atom_site_occupancy
  _atom_site_fract_x
  _atom_site_fract_y
  _atom_site_fract_z
  _atom_site_thermal_displace_type
  _atom_site_B_iso_or_equiv
  _atom_site_type_symbol
  C1       1.0000 0.01074  0.11194  0.79547  Biso   1.000  C
  C2       1.0000 0.95797  0.99097  0.70992  Biso   1.000  C
  C3       1.0000 0.95785  0.99097  0.70992  Biso   1.000  C
  H1       1.0000 0.92255  0.13565  0.83339  Biso   1.000  H
  H2       1.0000 0.92243  0.13565  0.83339  Biso   1.000  H
  H3       1.0000 0.92244  0.13574  0.83339  Biso   1.000  H
  O1       1.0000 0.05510  0.20467  0.71176  Biso   1.000  O
  H4       1.0000 0.10083  0.10200  0.86814  Biso   1.000  H
  H5       1.0000 0.10071  0.10200  0.86814  Biso   1.000  H
  O2       1.0000 0.05499  0.20476  0.71176  Biso   1.000  O
  C4       1.0000 0.82681  0.00427  0.58595  Biso   1.000  C
  C5       1.0000 0.82684  0.00428  0.58605  Biso   1.000  C
  C6       1.0000 0.82670  0.00437  0.58595  Biso   1.000  C
  C7       1.0000 0.01424  0.88361  0.74345  Biso   1.000  C
  C8       1.0000 0.01420  0.88351  0.74334  Biso   1.000  C
  C9       1.0000 0.01075  0.11203  0.79547  Biso   1.000  C
  C10      1.0000 0.01063  0.11203  0.79547  Biso   1.000  C
  C11      1.0000 0.00812  0.32391  0.74150  Biso   1.000  C
  C12      1.0000 0.00823  0.32382  0.74150  Biso   1.000  C
  O3       1.0000 0.69997  0.06687  0.62141  Biso   1.000  O
  O4       1.0000 0.69985  0.06687  0.62141  Biso   1.000  O
  O5       1.0000 0.69986  0.06697  0.62141  Biso   1.000  O
  H6       1.0000 0.87367  0.05194  0.52370  Biso   1.000  H
  H7       1.0000 0.78383  0.92367  0.54353  Biso   1.000  H
  H8       1.0000 0.87357  0.05203  0.52370  Biso   1.000  H
  C13      1.0000 0.96038  0.75936  0.66066  Biso   1.000  C
  C14      1.0000 0.96026  0.75936  0.66066  Biso   1.000  C
  C15      1.0000 0.14194  0.86857  0.86947  Biso   1.000  C
  H9       1.0000 0.90358  0.31257  0.76286  Biso   1.000  H
  H10      1.0000 0.00003  0.36943  0.66178  Biso   1.000  H
  H11      1.0000 0.90349  0.31257  0.76297  Biso   1.000  H
  H12      1.0000 0.90347  0.31266  0.76286  Biso   1.000  H
  H13      1.0000 0.99992  0.36952  0.66178  Biso   1.000  H
  C16      1.0000 0.12431  0.39837  0.85730  Biso   1.000  C
  C17      1.0000 0.12420  0.39847  0.85730  Biso   1.000  C
  C18      1.0000 0.59644  0.98981  0.68386  Biso   1.000  C
  C19      1.0000 0.59643  0.98972  0.68386  Biso   1.000  C
  O6       1.0000 0.92745  0.66078  0.74365  Biso   1.000  O
  O7       1.0000 0.92733  0.66078  0.74365  Biso   1.000  O
  H14      1.0000 0.86585  0.66788  0.59371  Biso   1.000  H
  H15      1.0000 0.86596  0.66778  0.59371  Biso   1.000  H
  H16      1.0000 0.04600  0.73914  0.61763  Biso   1.000  H
  H17      1.0000 0.04599  0.73904  0.61763  Biso   1.000  H
  O8       1.0000 0.27087  0.81226  0.83144  Biso   1.000  O
  H18      1.0000 0.09654  0.81619  0.92854  Biso   1.000  H
  O9       1.0000 0.27078  0.81226  0.83155  Biso   1.000  O
  H19      1.0000 0.18223  0.94809  0.91658  Biso   1.000  H
  H20      1.0000 0.09642  0.81619  0.92854  Biso   1.000  H
  H21      1.0000 0.09733  0.48241  0.86016  Biso   1.000  H
  H22      1.0000 0.23134  0.39698  0.84402  Biso   1.000  H
  O10      1.0000 0.11172  0.34589  0.97954  Biso   1.000  O
  H23      1.0000 0.09724  0.48241  0.86027  Biso   1.000  H
  O11      1.0000 0.11159  0.34597  0.97944  Biso   1.000  O
  H24      1.0000 0.09722  0.48250  0.86016  Biso   1.000  H
  H25      1.0000 0.23123  0.39707  0.84402  Biso   1.000  H
  H26      1.0000 0.52497  0.93387  0.61620  Biso   1.000  H
  H27      1.0000 0.66131  0.94307  0.74856  Biso   1.000  H
  H28      1.0000 0.52498  0.93397  0.61620  Biso   1.000  H
  H29      1.0000 0.66134  0.94308  0.74866  Biso   1.000  H
  C20      1.0000 0.49930  0.06819  0.75367  Biso   1.000  C
  C21      1.0000 0.78083  0.66988  0.78831  Biso   1.000  C
  C22      1.0000 0.35146  0.73617  0.92813  Biso   1.000  C
  C23      1.0000 0.35135  0.73617  0.92813  Biso   1.000  C
  C24      1.0000 0.21887  0.40719  0.09473  Biso   1.000  C
  H30      1.0000 0.45342  0.12813  0.69551  Biso   1.000  H
  O12      1.0000 0.60647  0.13108  0.87141  Biso   1.000  O
  H31      1.0000 0.41626  0.01705  0.78065  Biso   1.000  H
  O13      1.0000 0.60648  0.13117  0.87141  Biso   1.000  O
  H32      1.0000 0.45331  0.12822  0.69551  Biso   1.000  H
  H33      1.0000 0.41624  0.01696  0.78065  Biso   1.000  H
  C25      1.0000 0.78112  0.59276  0.90524  Biso   1.000  C
  H34      1.0000 0.69060  0.64005  0.71493  Biso   1.000  H
  H35      1.0000 0.77317  0.75470  0.81468  Biso   1.000  H
  C26      1.0000 0.78114  0.59277  0.90534  Biso   1.000  C
  H36      1.0000 0.69052  0.64015  0.71503  Biso   1.000  H
  H37      1.0000 0.77305  0.75470  0.81468  Biso   1.000  H
  H38      1.0000 0.69051  0.64006  0.71503  Biso   1.000  H
  H39      1.0000 0.27011  0.69037  0.96329  Biso   1.000  H
  H40      1.0000 0.40314  0.67933  0.87989  Biso   1.000  H
  C27      1.0000 0.47454  0.80706  0.04107  Biso   1.000  C
  C28      1.0000 0.47453  0.80696  0.04107  Biso   1.000  C
  C29      1.0000 0.21927  0.33007  0.21165  Biso   1.000  C
  C30      1.0000 0.21915  0.33007  0.21165  Biso   1.000  C
  H41      1.0000 0.18532  0.48735  0.11466  Biso   1.000  H
  H42      1.0000 0.32653  0.41913  0.07919  Biso   1.000  H
  C31      1.0000 0.52546  0.19299  0.95890  Biso   1.000  C
  C32      1.0000 0.52535  0.19308  0.95890  Biso   1.000  C
  H43      1.0000 0.67358  0.58091  0.92077  Biso   1.000  H
  H44      1.0000 0.81469  0.51260  0.88541  Biso   1.000  H
  H45      1.0000 0.67349  0.58092  0.92087  Biso   1.000  H
  H46      1.0000 0.81465  0.51250  0.88531  Biso   1.000  H
  H47      1.0000 0.67357  0.58082  0.92077  Biso   1.000  H
  O14      1.0000 0.88830  0.65416  0.02053  Biso   1.000  O
  O15      1.0000 0.88829  0.65407  0.02053  Biso   1.000  O
  O16      1.0000 0.88818  0.65416  0.02053  Biso   1.000  O
  O17      1.0000 0.39341  0.86896  0.12856  Biso   1.000  O
  O18      1.0000 0.39352  0.86887  0.12856  Biso   1.000  O
  H48      1.0000 0.53909  0.74940  0.09033  Biso   1.000  H
  H49      1.0000 0.54087  0.86615  0.00581  Biso   1.000  H
  H50      1.0000 0.53899  0.74950  0.09033  Biso   1.000  H
  H51      1.0000 0.54076  0.86624  0.00581  Biso   1.000  H
  O19      1.0000 0.07266  0.33917  0.25631  Biso   1.000  O
  H52      1.0000 0.22693  0.24525  0.18528  Biso   1.000  H
  H53      1.0000 0.30949  0.35980  0.28503  Biso   1.000  H
  H54      1.0000 0.46089  0.25054  0.90963  Biso   1.000  H
  H55      1.0000 0.45914  0.13381  0.99426  Biso   1.000  H
  H56      1.0000 0.46078  0.25064  0.90963  Biso   1.000  H
  H57      1.0000 0.45899  0.13380  0.99416  Biso   1.000  H
  C33      1.0000 0.64867  0.26379  0.07194  Biso   1.000  C
  C34      1.0000 0.87568  0.60167  0.14266  Biso   1.000  C
  C35      1.0000 0.87579  0.60157  0.14266  Biso   1.000  C
  C36      1.0000 0.50058  0.93185  0.24630  Biso   1.000  C
  C37      1.0000 0.50046  0.93185  0.24630  Biso   1.000  C
  C38      1.0000 0.03972  0.24059  0.33931  Biso   1.000  C
  O20      1.0000 0.72923  0.18769  0.16852  Biso   1.000  O
  H58      1.0000 0.59696  0.32052  0.12007  Biso   1.000  H
  H59      1.0000 0.72991  0.30958  0.03678  Biso   1.000  H
  O21      1.0000 0.72922  0.18760  0.16852  Biso   1.000  O
  H60      1.0000 0.72999  0.30948  0.03667  Biso   1.000  H
  H61      1.0000 0.59687  0.32053  0.12018  Biso   1.000  H
  C39      1.0000 0.99164  0.67613  0.25846  Biso   1.000  C
  H62      1.0000 0.90267  0.51763  0.13980  Biso   1.000  H
  H63      1.0000 0.90277  0.51754  0.13980  Biso   1.000  H
  H64      1.0000 0.76864  0.60297  0.15595  Biso   1.000  H
  H65      1.0000 0.76854  0.60306  0.15595  Biso   1.000  H
  C40      1.0000 0.40355  0.01023  0.31610  Biso   1.000  C
  C41      1.0000 0.40354  0.01013  0.31610  Biso   1.000  C
  H66      1.0000 0.58363  0.98308  0.21932  Biso   1.000  H
  H67      1.0000 0.54657  0.87182  0.30445  Biso   1.000  H
  H68      1.0000 0.58362  0.98299  0.21932  Biso   1.000  H
  H69      1.0000 0.54646  0.87191  0.30445  Biso   1.000  H
  C42      1.0000 0.98578  0.11644  0.25662  Biso   1.000  C
  C43      1.0000 0.98577  0.11635  0.25662  Biso   1.000  C
  H70      1.0000 0.95400  0.26090  0.38233  Biso   1.000  H
  H71      1.0000 0.95399  0.26081  0.38233  Biso   1.000  H
  H72      1.0000 0.13413  0.33207  0.40625  Biso   1.000  H
  H73      1.0000 0.13414  0.33216  0.40625  Biso   1.000  H
  C44      1.0000 0.85804  0.13138  0.13050  Biso   1.000  C
  O22      1.0000 0.94488  0.79528  0.28820  Biso   1.000  O
  O23      1.0000 0.94477  0.79537  0.28820  Biso   1.000  O
  H74      1.0000 0.99998  0.63053  0.33828  Biso   1.000  H
  H75      1.0000 0.99988  0.63062  0.33828  Biso   1.000  H
  H76      1.0000 0.09642  0.68747  0.23710  Biso   1.000  H
  H77      1.0000 0.99997  0.63061  0.33818  Biso   1.000  H
  H78      1.0000 0.09653  0.68738  0.23710  Biso   1.000  H
  O24      1.0000 0.30003  0.93317  0.37855  Biso   1.000  O
  O25      1.0000 0.30013  0.93307  0.37855  Biso   1.000  O
  H79      1.0000 0.47513  0.06607  0.38377  Biso   1.000  H
  H80      1.0000 0.33879  0.05688  0.25141  Biso   1.000  H
  H81      1.0000 0.47504  0.06608  0.38387  Biso   1.000  H
  H82      1.0000 0.33867  0.05688  0.25141  Biso   1.000  H
  H83      1.0000 0.47512  0.06598  0.38377  Biso   1.000  H
  H84      1.0000 0.47503  0.06599  0.38387  Biso   1.000  H
  C45      1.0000 0.04216  0.00899  0.29014  Biso   1.000  C
  H85      1.0000 0.81776  0.05185  0.08338  Biso   1.000  H
  H86      1.0000 0.90357  0.18376  0.07142  Biso   1.000  H
  H87      1.0000 0.81775  0.05176  0.08338  Biso   1.000  H
  H88      1.0000 0.90356  0.18366  0.07142  Biso   1.000  H
  C46      1.0000 0.98924  0.88801  0.20450  Biso   1.000  C
  C47      1.0000 0.98914  0.88810  0.20450  Biso   1.000  C
  C48      1.0000 0.17318  0.99567  0.41402  Biso   1.000  C
  C49      1.0000 0.17307  0.99577  0.41402  Biso   1.000  C
  H89      1.0000 0.89930  0.89795  0.13193  Biso   1.000  H
  H90      1.0000 0.89919  0.89805  0.13193  Biso   1.000  H
  H91      1.0000 0.07745  0.86439  0.16658  Biso   1.000  H
  H92      1.0000 0.07755  0.86430  0.16658  Biso   1.000  H
  H93      1.0000 0.12632  0.94810  0.47626  Biso   1.000  H
  H94      1.0000 0.12634  0.94802  0.47636  Biso   1.000  H
  H95      1.0000 0.12623  0.94811  0.47636  Biso   1.000  H
  H96      1.0000 0.21626  0.07618  0.45643  Biso   1.000  H
  H97      1.0000 0.21616  0.07627  0.45643  Biso   1.000  H
  H98      1.0000 0.21615  0.07618  0.45643  Biso   1.000  H
