data_image0
_cell_length_a       8.451
_cell_length_b       10.722
_cell_length_c       10.054
_cell_angle_alpha    93.05
_cell_angle_beta     102.59
_cell_angle_gamma    95.33

_symmetry_space_group_name_H-M    "P 1"
_symmetry_int_tables_number       1

loop_
  _symmetry_equiv_pos_as_xyz
  'x, y, z'

loop_
  _atom_site_label
  _atom_site_occupancy
  _atom_site_fract_x
  _atom_site_fract_y
  _atom_site_fract_z
  _atom_site_thermal_displace_type
  _atom_site_B_iso_or_equiv
  _atom_site_type_symbol
  C1       1.0000 0.01074  0.11194  0.79547  Biso   1.000  C
  C2       1.0000 0.95797  0.99097  0.70992  Biso   1.000  C
  C3       1.0000 0.95785  0.99097  0.70992  Biso   1.000  C
  O1       1.0000 0.05510  0.20467  0.71176  Biso   1.000  O
  O2       1.0000 0.05499  0.20476  0.71176  Biso   1.000  O
  C4       1.0000 0.82681  0.00427  0.58595  Biso   1.000  C
  C5       1.0000 0.82684  0.00428  0.58605  Biso   1.000  C
  C6       1.0000 0.82670  0.00437  0.58595  Biso   1.000  C
  C7       1.0000 0.01424  0.88361  0.74345  Biso   1.000  C
  C8       1.0000 0.01420  0.88351  0.74334  Biso   1.000  C
  C9       1.0000 0.01075  0.11203  0.79547  Biso   1.000  C
  C10      1.0000 0.01063  0.11203  0.79547  Biso   1.000  C
  C11      1.0000 0.00812  0.32391  0.74150  Biso   1.000  C
  C12      1.0000 0.00823  0.32382  0.74150  Biso   1.000  C
  O3       1.0000 0.69997  0.06687  0.62141  Biso   1.000  O
  O4       1.0000 0.69985  0.06687  0.62141  Biso   1.000  O
  O5       1.0000 0.69986  0.06697  0.62141  Biso   1.000  O
  C13      1.0000 0.96038  0.75936  0.66066  Biso   1.000  C
  C14      1.0000 0.96026  0.75936  0.66066  Biso   1.000  C
  C15      1.0000 0.14194  0.86857  0.86947  Biso   1.000  C
  C16      1.0000 0.12431  0.39837  0.85730  Biso   1.000  C
  C17      1.0000 0.12420  0.39847  0.85730  Biso   1.000  C
  C18      1.0000 0.59644  0.98981  0.68386  Biso   1.000  C
  C19      1.0000 0.59643  0.98972  0.68386  Biso   1.000  C
  O6       1.0000 0.92745  0.66078  0.74365  Biso   1.000  O
  O7       1.0000 0.92733  0.66078  0.74365  Biso   1.000  O
  O8       1.0000 0.27087  0.81226  0.83144  Biso   1.000  O
  O9       1.0000 0.27078  0.81226  0.83155  Biso   1.000  O
  O10      1.0000 0.11172  0.34589  0.97954  Biso   1.000  O
  O11      1.0000 0.11159  0.34597  0.97944  Biso   1.000  O
  C20      1.0000 0.49930  0.06819  0.75367  Biso   1.000  C
  C21      1.0000 0.78083  0.66988  0.78831  Biso   1.000  C
  C22      1.0000 0.35146  0.73617  0.92813  Biso   1.000  C
  C23      1.0000 0.35135  0.73617  0.92813  Biso   1.000  C
  C24      1.0000 0.21887  0.40719  0.09473  Biso   1.000  C
  O12      1.0000 0.60647  0.13108  0.87141  Biso   1.000  O
  O13      1.0000 0.60648  0.13117  0.87141  Biso   1.000  O
  C25      1.0000 0.78112  0.59276  0.90524  Biso   1.000  C
  C26      1.0000 0.78114  0.59277  0.90534  Biso   1.000  C
  C27      1.0000 0.47454  0.80706  0.04107  Biso   1.000  C
  C28      1.0000 0.47453  0.80696  0.04107  Biso   1.000  C
  C29      1.0000 0.21927  0.33007  0.21165  Biso   1.000  C
  C30      1.0000 0.21915  0.33007  0.21165  Biso   1.000  C
  C31      1.0000 0.52546  0.19299  0.95890  Biso   1.000  C
  C32      1.0000 0.52535  0.19308  0.95890  Biso   1.000  C
  O14      1.0000 0.88830  0.65416  0.02053  Biso   1.000  O
  O15      1.0000 0.88829  0.65407  0.02053  Biso   1.000  O
  O16      1.0000 0.88818  0.65416  0.02053  Biso   1.000  O
  O17      1.0000 0.39341  0.86896  0.12856  Biso   1.000  O
  O18      1.0000 0.39352  0.86887  0.12856  Biso   1.000  O
  O19      1.0000 0.07266  0.33917  0.25631  Biso   1.000  O
  C33      1.0000 0.64867  0.26379  0.07194  Biso   1.000  C
  C34      1.0000 0.87568  0.60167  0.14266  Biso   1.000  C
  C35      1.0000 0.87579  0.60157  0.14266  Biso   1.000  C
  C36      1.0000 0.50058  0.93185  0.24630  Biso   1.000  C
  C37      1.0000 0.50046  0.93185  0.24630  Biso   1.000  C
  C38      1.0000 0.03972  0.24059  0.33931  Biso   1.000  C
  O20      1.0000 0.72923  0.18769  0.16852  Biso   1.000  O
  O21      1.0000 0.72922  0.18760  0.16852  Biso   1.000  O
  C39      1.0000 0.99164  0.67613  0.25846  Biso   1.000  C
  C40      1.0000 0.40355  0.01023  0.31610  Biso   1.000  C
  C41      1.0000 0.40354  0.01013  0.31610  Biso   1.000  C
  C42      1.0000 0.98578  0.11644  0.25662  Biso   1.000  C
  C43      1.0000 0.98577  0.11635  0.25662  Biso   1.000  C
  C44      1.0000 0.85804  0.13138  0.13050  Biso   1.000  C
  O22      1.0000 0.94488  0.79528  0.28820  Biso   1.000  O
  O23      1.0000 0.94477  0.79537  0.28820  Biso   1.000  O
  O24      1.0000 0.30003  0.93317  0.37855  Biso   1.000  O
  O25      1.0000 0.30013  0.93307  0.37855  Biso   1.000  O
  C45      1.0000 0.04216  0.00899  0.29014  Biso   1.000  C
  C46      1.0000 0.98924  0.88801  0.20450  Biso   1.000  C
  C47      1.0000 0.98914  0.88810  0.20450  Biso   1.000  C
  C48      1.0000 0.17318  0.99567  0.41402  Biso   1.000  C
  C49      1.0000 0.17307  0.99577  0.41402  Biso   1.000  C
  Ne1      1.0000 0.99963  0.98734  0.97529  Biso   1.000  Ne
  He1      1.0000 0.03960  0.01669  0.01864  Biso   1.000  He
  He2      1.0000 0.94035  0.97446  0.97224  Biso   1.000  He
  He3      1.0000 0.82788  0.07075  0.91495  Biso   1.000  He
  Ar1      1.0000 0.98931  0.99595  0.99445  Biso   1.000  Ar
