data_image0
_cell_length_a       11.958
_cell_length_b       12.13
_cell_length_c       12.178
_cell_angle_alpha    91.12
_cell_angle_beta     92.4
_cell_angle_gamma    103.05

_symmetry_space_group_name_H-M    "P 1"
_symmetry_int_tables_number       1

loop_
  _symmetry_equiv_pos_as_xyz
  'x, y, z'

loop_
  _atom_site_label
  _atom_site_occupancy
  _atom_site_fract_x
  _atom_site_fract_y
  _atom_site_fract_z
  _atom_site_thermal_displace_type
  _atom_site_B_iso_or_equiv
  _atom_site_type_symbol
  N1       1.0000 0.69086  0.41045  0.73155  Biso   1.000  N
  C1       1.0000 0.80166  0.40098  0.70976  Biso   1.000  C
  H1       1.0000 0.64580  0.42230  0.67621  Biso   1.000  H
  C2       1.0000 0.64712  0.40217  0.83679  Biso   1.000  C
  C3       1.0000 0.82777  0.42419  0.59160  Biso   1.000  C
  O1       1.0000 0.87148  0.39247  0.78269  Biso   1.000  O
  H2       1.0000 0.81017  0.32365  0.72669  Biso   1.000  H
  H3       1.0000 0.85772  0.45527  0.75810  Biso   1.000  H
  C4       1.0000 0.52774  0.42186  0.83589  Biso   1.000  C
  H4       1.0000 0.69816  0.45864  0.88720  Biso   1.000  H
  H5       1.0000 0.64643  0.32603  0.86491  Biso   1.000  H
  O2       1.0000 0.69614  0.37159  0.90726  Biso   1.000  O
  C5       1.0000 0.85449  0.53793  0.55608  Biso   1.000  C
  C6       1.0000 0.82214  0.33650  0.51678  Biso   1.000  C
  C7       1.0000 0.43198  0.33338  0.80111  Biso   1.000  C
  C8       1.0000 0.51089  0.52770  0.86261  Biso   1.000  C
  C9       1.0000 0.87166  0.56102  0.44261  Biso   1.000  C
  C10      1.0000 0.86637  0.63089  0.63164  Biso   1.000  C
  C11      1.0000 0.84617  0.35867  0.40619  Biso   1.000  C
  O3       1.0000 0.79541  0.22908  0.55707  Biso   1.000  O
  C12      1.0000 0.32027  0.35543  0.78886  Biso   1.000  C
  C13      1.0000 0.44485  0.22148  0.77825  Biso   1.000  C
  C14      1.0000 0.39960  0.54706  0.85891  Biso   1.000  C
  O4       1.0000 0.60681  0.60941  0.89435  Biso   1.000  O
  C15      1.0000 0.89185  0.67477  0.40701  Biso   1.000  C
  C16      1.0000 0.86983  0.46701  0.37116  Biso   1.000  C
  C17      1.0000 0.89503  0.73900  0.59736  Biso   1.000  C
  H6       1.0000 0.85394  0.61730  0.70729  Biso   1.000  H
  H7       1.0000 0.84597  0.29780  0.35587  Biso   1.000  H
  C18      1.0000 0.76154  0.13435  0.48150  Biso   1.000  C
  C19      1.0000 0.22479  0.26863  0.74569  Biso   1.000  C
  C20      1.0000 0.30838  0.46410  0.82240  Biso   1.000  C
  C21      1.0000 0.35225  0.13804  0.74536  Biso   1.000  C
  H8       1.0000 0.51865  0.20488  0.78606  Biso   1.000  H
  H9       1.0000 0.38783  0.61877  0.88210  Biso   1.000  H
  C22      1.0000 0.59320  0.72182  0.91458  Biso   1.000  C
  C23      1.0000 0.89222  0.70960  0.28737  Biso   1.000  C
  C24      1.0000 0.90696  0.76010  0.48529  Biso   1.000  C
  H10      1.0000 0.88556  0.47994  0.29609  Biso   1.000  H
  H11      1.0000 0.90703  0.80034  0.64940  Biso   1.000  H
  C25      1.0000 0.71594  0.03265  0.54852  Biso   1.000  C
  H12      1.0000 0.70144  0.14701  0.42789  Biso   1.000  H
  H13      1.0000 0.82836  0.12336  0.44056  Biso   1.000  H
  C26      1.0000 0.10777  0.29038  0.71255  Biso   1.000  C
  C27      1.0000 0.24374  0.16237  0.72735  Biso   1.000  C
  H14      1.0000 0.23395  0.47966  0.81928  Biso   1.000  H
  H15      1.0000 0.36113  0.06274  0.73459  Biso   1.000  H
  H16      1.0000 0.53777  0.72208  0.97254  Biso   1.000  H
  H17      1.0000 0.56355  0.75140  0.84691  Biso   1.000  H
  C28      1.0000 0.70801  0.79503  0.95067  Biso   1.000  C
  C29      1.0000 0.77518  0.73127  0.25424  Biso   1.000  C
  C30      1.0000 0.98252  0.82014  0.27973  Biso   1.000  C
  H18      1.0000 0.91036  0.64929  0.23861  Biso   1.000  H
  O5       1.0000 0.93431  0.87474  0.46210  Biso   1.000  O
  H19      1.0000 0.77939  0.01840  0.59711  Biso   1.000  H
  C31      1.0000 0.61814  0.04477  0.61791  Biso   1.000  C
  H20      1.0000 0.68986  0.96578  0.49819  Biso   1.000  H
  C32      1.0000 0.10806  0.32522  0.59300  Biso   1.000  C
  C33      1.0000 0.01737  0.17976  0.72028  Biso   1.000  C
  H21      1.0000 0.08955  0.35069  0.76139  Biso   1.000  H
  O6       1.0000 0.15883  0.06964  0.68937  Biso   1.000  O
  H22      1.0000 0.69798  0.87208  0.96835  Biso   1.000  H
  C34      1.0000 0.79951  0.80392  0.86796  Biso   1.000  C
  H23      1.0000 0.73534  0.76472  0.01908  Biso   1.000  H
  C35      1.0000 0.67963  0.64455  0.21107  Biso   1.000  C
  C36      1.0000 0.75616  0.83761  0.27257  Biso   1.000  C
  C37      1.0000 0.94603  0.90706  0.35151  Biso   1.000  C
  H24      1.0000 0.98695  0.84469  0.20260  Biso   1.000  H
  H25      1.0000 0.05901  0.80976  0.30538  Biso   1.000  H
  H26      1.0000 0.64551  0.10869  0.67128  Biso   1.000  H
  H27      1.0000 0.55656  0.06344  0.56989  Biso   1.000  H
  C38      1.0000 0.56814  0.93903  0.68016  Biso   1.000  C
  C39      1.0000 0.12824  0.43896  0.55740  Biso   1.000  C
  C40      1.0000 0.09295  0.23988  0.51472  Biso   1.000  C
  C41      1.0000 0.05386  0.09284  0.64850  Biso   1.000  C
  H28      1.0000 0.01296  0.15530  0.79741  Biso   1.000  H
  H29      1.0000 0.94087  0.19014  0.69455  Biso   1.000  H
  H30      1.0000 0.77057  0.82935  0.79782  Biso   1.000  H
  H31      1.0000 0.81412  0.72784  0.85431  Biso   1.000  H
  C42      1.0000 0.91190  0.88482  0.90389  Biso   1.000  C
  C43      1.0000 0.56792  0.66660  0.19882  Biso   1.000  C
  C44      1.0000 0.69153  0.53588  0.17760  Biso   1.000  C
  C45      1.0000 0.64763  0.86185  0.25457  Biso   1.000  C
  O7       1.0000 0.84116  0.93034  0.31064  Biso   1.000  O
  H32      1.0000 0.00676  0.97887  0.35052  Biso   1.000  H
  H33      1.0000 0.50960  0.95448  0.72850  Biso   1.000  H
  H34      1.0000 0.53305  0.87734  0.62778  Biso   1.000  H
  H35      1.0000 0.62951  0.91721  0.72447  Biso   1.000  H
  C46      1.0000 0.14542  0.46205  0.44384  Biso   1.000  C
  C47      1.0000 0.13016  0.53297  0.62885  Biso   1.000  C
  C48      1.0000 0.10488  0.26098  0.40257  Biso   1.000  C
  O8       1.0000 0.06559  0.12525  0.53783  Biso   1.000  O
  H36      1.0000 0.99323  0.02111  0.64949  Biso   1.000  H
  H37      1.0000 0.96623  0.88945  0.84510  Biso   1.000  H
  H38      1.0000 0.94408  0.85742  0.97049  Biso   1.000  H
  H39      1.0000 0.89803  0.96018  0.91910  Biso   1.000  H
  C49      1.0000 0.47216  0.57812  0.16404  Biso   1.000  C
  C50      1.0000 0.55505  0.77850  0.22168  Biso   1.000  C
  C51      1.0000 0.60039  0.45293  0.14101  Biso   1.000  C
  H40      1.0000 0.76596  0.52032  0.18073  Biso   1.000  H
  H41      1.0000 0.63875  0.93717  0.26542  Biso   1.000  H
  C52      1.0000 0.17213  0.57580  0.40841  Biso   1.000  C
  C53      1.0000 0.13361  0.36910  0.36828  Biso   1.000  C
  C54      1.0000 0.15380  0.64123  0.59382  Biso   1.000  C
  H42      1.0000 0.11441  0.51996  0.70392  Biso   1.000  H
  H43      1.0000 0.09286  0.19956  0.35060  Biso   1.000  H
  C55      1.0000 0.48910  0.47228  0.13740  Biso   1.000  C
  C56      1.0000 0.35279  0.59781  0.16321  Biso   1.000  C
  H44      1.0000 0.48125  0.79511  0.21386  Biso   1.000  H
  H45      1.0000 0.61208  0.38122  0.11791  Biso   1.000  H
  C57      1.0000 0.19824  0.59900  0.29017  Biso   1.000  C
  C58      1.0000 0.17774  0.66340  0.48323  Biso   1.000  C
  H46      1.0000 0.14596  0.38269  0.29272  Biso   1.000  H
  H47      1.0000 0.15393  0.70218  0.64406  Biso   1.000  H
  O9       1.0000 0.39308  0.39049  0.10566  Biso   1.000  O
  N2       1.0000 0.30905  0.58953  0.26838  Biso   1.000  N
  H48      1.0000 0.30172  0.54126  0.11281  Biso   1.000  H
  H49      1.0000 0.35345  0.67387  0.13509  Biso   1.000  H
  O10      1.0000 0.30376  0.62840  0.09267  Biso   1.000  O
  O11      1.0000 0.12851  0.60751  0.21732  Biso   1.000  O
  H50      1.0000 0.18980  0.67625  0.27331  Biso   1.000  H
  H51      1.0000 0.14219  0.54471  0.24190  Biso   1.000  H
  O12      1.0000 0.20456  0.77082  0.44286  Biso   1.000  O
  C59      1.0000 0.40669  0.27808  0.08543  Biso   1.000  C
  H52      1.0000 0.35419  0.57769  0.32380  Biso   1.000  H
  C60      1.0000 0.23835  0.86555  0.51850  Biso   1.000  C
  C61      1.0000 0.29188  0.20487  0.04933  Biso   1.000  C
  H53      1.0000 0.46221  0.27791  0.02738  Biso   1.000  H
  H54      1.0000 0.43636  0.24859  0.15310  Biso   1.000  H
  C62      1.0000 0.28395  0.96725  0.45149  Biso   1.000  C
  H55      1.0000 0.29846  0.85298  0.57211  Biso   1.000  H
  H56      1.0000 0.17152  0.87654  0.55937  Biso   1.000  H
  C63      1.0000 0.20037  0.19598  0.13197  Biso   1.000  C
  H57      1.0000 0.30201  0.12791  0.03157  Biso   1.000  H
  H58      1.0000 0.26454  0.23518  0.98092  Biso   1.000  H
  H59      1.0000 0.22052  0.98158  0.40290  Biso   1.000  H
  C64      1.0000 0.38177  0.95522  0.38209  Biso   1.000  C
  H60      1.0000 0.31005  0.03421  0.50181  Biso   1.000  H
  H61      1.0000 0.22942  0.17063  0.20219  Biso   1.000  H
  H62      1.0000 0.18577  0.27206  0.14570  Biso   1.000  H
  C65      1.0000 0.08799  0.11508  0.09612  Biso   1.000  C
  H63      1.0000 0.35448  0.89129  0.32873  Biso   1.000  H
  H64      1.0000 0.44333  0.93646  0.43011  Biso   1.000  H
  C66      1.0000 0.43174  0.06086  0.31977  Biso   1.000  C
  H65      1.0000 0.03368  0.11054  0.15491  Biso   1.000  H
  H66      1.0000 0.05580  0.14248  0.02952  Biso   1.000  H
  H67      1.0000 0.10188  0.03980  0.08091  Biso   1.000  H
  H68      1.0000 0.49039  0.04550  0.27150  Biso   1.000  H
  H69      1.0000 0.46684  0.12256  0.37223  Biso   1.000  H
  H70      1.0000 0.37048  0.08278  0.27553  Biso   1.000  H
  Ne1      1.0000 0.49996  0.49998  0.49998  Biso   1.000  Ne
  He1      1.0000 0.45264  0.50726  0.54628  Biso   1.000  He
  He2      1.0000 0.54819  0.49638  0.45540  Biso   1.000  He
  Ar1      1.0000 0.49998  0.49997  0.50000  Biso   1.000  Ar
