data_image0
_cell_length_a       11.856
_cell_length_b       11.859
_cell_length_c       12.517
_cell_angle_alpha    89.97
_cell_angle_beta     86.8
_cell_angle_gamma    73.6

_symmetry_space_group_name_H-M    "P 1"
_symmetry_int_tables_number       1

loop_
  _symmetry_equiv_pos_as_xyz
  'x, y, z'

loop_
  _atom_site_label
  _atom_site_occupancy
  _atom_site_fract_x
  _atom_site_fract_y
  _atom_site_fract_z
  _atom_site_thermal_displace_type
  _atom_site_B_iso_or_equiv
  _atom_site_type_symbol
  C1       1.0000 0.44921  0.85895  0.42670  Biso   1.000  C
  C2       1.0000 0.33327  0.88009  0.38917  Biso   1.000  C
  C3       1.0000 0.55190  0.83489  0.35804  Biso   1.000  C
  C4       1.0000 0.46480  0.86495  0.53850  Biso   1.000  C
  C5       1.0000 0.30506  0.87058  0.27225  Biso   1.000  C
  C6       1.0000 0.23951  0.91443  0.46303  Biso   1.000  C
  H1       1.0000 0.54449  0.83323  0.28289  Biso   1.000  H
  C7       1.0000 0.66145  0.81393  0.39589  Biso   1.000  C
  C8       1.0000 0.36383  0.89600  0.61020  Biso   1.000  C
  C9       1.0000 0.57971  0.83969  0.57739  Biso   1.000  C
  C10      1.0000 0.27944  0.75422  0.24848  Biso   1.000  C
  C11      1.0000 0.19316  0.96961  0.25528  Biso   1.000  C
  H2       1.0000 0.37140  0.88001  0.22351  Biso   1.000  H
  O1       1.0000 0.12301  0.94546  0.43790  Biso   1.000  O
  C12      1.0000 0.25440  0.92181  0.57307  Biso   1.000  C
  H3       1.0000 0.72840  0.79910  0.34707  Biso   1.000  H
  C13      1.0000 0.67603  0.81419  0.50641  Biso   1.000  C
  H4       1.0000 0.37285  0.89862  0.68502  Biso   1.000  H
  C14      1.0000 0.59546  0.83025  0.69607  Biso   1.000  C
  C15      1.0000 0.36607  0.65073  0.20623  Biso   1.000  C
  C16      1.0000 0.16649  0.74702  0.26889  Biso   1.000  C
  C17      1.0000 0.09737  0.94795  0.32859  Biso   1.000  C
  H5       1.0000 0.17194  0.96970  0.17990  Biso   1.000  H
  H6       1.0000 0.20522  0.04673  0.27217  Biso   1.000  H
  H7       1.0000 0.18737  0.94498  0.62180  Biso   1.000  H
  O2       1.0000 0.78414  0.79060  0.54962  Biso   1.000  O
  N1       1.0000 0.58382  0.72356  0.73216  Biso   1.000  N
  H8       1.0000 0.67449  0.83693  0.71119  Biso   1.000  H
  H9       1.0000 0.53570  0.89527  0.73432  Biso   1.000  H
  O3       1.0000 0.60136  0.90312  0.75617  Biso   1.000  O
  C18      1.0000 0.33686  0.54254  0.19702  Biso   1.000  C
  C19      1.0000 0.48045  0.65104  0.16870  Biso   1.000  C
  C20      1.0000 0.13638  0.64176  0.25664  Biso   1.000  C
  O4       1.0000 0.07240  0.84140  0.30258  Biso   1.000  O
  H10      1.0000 0.02424  0.01372  0.31978  Biso   1.000  H
  C21      1.0000 0.88766  0.75071  0.47992  Biso   1.000  C
  C22      1.0000 0.60191  0.67847  0.83299  Biso   1.000  C
  H11      1.0000 0.56232  0.67958  0.68518  Biso   1.000  H
  C23      1.0000 0.42446  0.43853  0.16069  Biso   1.000  C
  C24      1.0000 0.21960  0.54161  0.22463  Biso   1.000  C
  C25      1.0000 0.56248  0.55192  0.13052  Biso   1.000  C
  H12      1.0000 0.50110  0.72279  0.17014  Biso   1.000  H
  H13      1.0000 0.05714  0.64069  0.27089  Biso   1.000  H
  H14      1.0000 0.88393  0.68175  0.43718  Biso   1.000  H
  H15      1.0000 0.89435  0.81383  0.43022  Biso   1.000  H
  C26      1.0000 0.99187  0.71779  0.54818  Biso   1.000  C
  C27      1.0000 0.57556  0.56141  0.83932  Biso   1.000  C
  O5       1.0000 0.65832  0.71594  0.88989  Biso   1.000  O
  H16      1.0000 0.55028  0.73399  0.88629  Biso   1.000  H
  H17      1.0000 0.68474  0.66866  0.84988  Biso   1.000  H
  C28      1.0000 0.39810  0.32147  0.16701  Biso   1.000  C
  C29      1.0000 0.53563  0.44395  0.12892  Biso   1.000  C
  H18      1.0000 0.19901  0.46991  0.22071  Biso   1.000  H
  H19      1.0000 0.63807  0.55604  0.10483  Biso   1.000  H
  H20      1.0000 0.99536  0.78838  0.58867  Biso   1.000  H
  C30      1.0000 0.98810  0.62176  0.62581  Biso   1.000  C
  H21      1.0000 0.06475  0.69175  0.50120  Biso   1.000  H
  C31      1.0000 0.66316  0.45740  0.80298  Biso   1.000  C
  C32      1.0000 0.46439  0.55599  0.87109  Biso   1.000  C
  N2       1.0000 0.41628  0.27638  0.26785  Biso   1.000  N
  O6       1.0000 0.34170  0.28400  0.11012  Biso   1.000  O
  H22      1.0000 0.44979  0.26604  0.11372  Biso   1.000  H
  H23      1.0000 0.31527  0.33128  0.15013  Biso   1.000  H
  O7       1.0000 0.61519  0.33994  0.09747  Biso   1.000  O
  H24      1.0000 0.92123  0.65152  0.67902  Biso   1.000  H
  H25      1.0000 0.97400  0.55506  0.58651  Biso   1.000  H
  C33      1.0000 0.10001  0.57838  0.68374  Biso   1.000  C
  C34      1.0000 0.63403  0.34921  0.79378  Biso   1.000  C
  C35      1.0000 0.78050  0.45833  0.77537  Biso   1.000  C
  C36      1.0000 0.43762  0.44802  0.86949  Biso   1.000  C
  O8       1.0000 0.38491  0.65999  0.90254  Biso   1.000  O
  C37      1.0000 0.40456  0.16969  0.30394  Biso   1.000  C
  H26      1.0000 0.43770  0.32036  0.31482  Biso   1.000  H
  C38      1.0000 0.73309  0.33867  0.06506  Biso   1.000  C
  H27      1.0000 0.09433  0.51371  0.73064  Biso   1.000  H
  H28      1.0000 0.16697  0.55048  0.63149  Biso   1.000  H
  H29      1.0000 0.11167  0.64277  0.72680  Biso   1.000  H
  C39      1.0000 0.72066  0.24572  0.75153  Biso   1.000  C
  C40      1.0000 0.51956  0.34890  0.83131  Biso   1.000  C
  C41      1.0000 0.86364  0.35818  0.74336  Biso   1.000  C
  H30      1.0000 0.80101  0.53003  0.77930  Biso   1.000  H
  H31      1.0000 0.36195  0.44389  0.89517  Biso   1.000  H
  C42      1.0000 0.26701  0.66126  0.93495  Biso   1.000  C
  C43      1.0000 0.42039  0.16024  0.42262  Biso   1.000  C
  H32      1.0000 0.32561  0.16300  0.28881  Biso   1.000  H
  H33      1.0000 0.46431  0.10467  0.26569  Biso   1.000  H
  O9       1.0000 0.39874  0.09682  0.24384  Biso   1.000  O
  H34      1.0000 0.73389  0.38695  0.00056  Biso   1.000  H
  H35      1.0000 0.76932  0.37063  0.12300  Biso   1.000  H
  C44      1.0000 0.79940  0.21221  0.04113  Biso   1.000  C
  C45      1.0000 0.69495  0.12936  0.72776  Biso   1.000  C
  C46      1.0000 0.83361  0.25292  0.73112  Biso   1.000  C
  H36      1.0000 0.49892  0.27715  0.82987  Biso   1.000  H
  H37      1.0000 0.94296  0.35925  0.72912  Biso   1.000  H
  H38      1.0000 0.26613  0.61299  0.99945  Biso   1.000  H
  H39      1.0000 0.23078  0.62931  0.87701  Biso   1.000  H
  C47      1.0000 0.20061  0.78773  0.95887  Biso   1.000  C
  C48      1.0000 0.32407  0.18575  0.49360  Biso   1.000  C
  C49      1.0000 0.53522  0.13499  0.46151  Biso   1.000  C
  H40      1.0000 0.87887  0.20858  0.00960  Biso   1.000  H
  C50      1.0000 0.81200  0.13575  0.13789  Biso   1.000  C
  H41      1.0000 0.75807  0.18050  0.98712  Biso   1.000  H
  C51      1.0000 0.66674  0.11985  0.61084  Biso   1.000  C
  C52      1.0000 0.80694  0.03033  0.74472  Biso   1.000  C
  H42      1.0000 0.62862  0.11993  0.77649  Biso   1.000  H
  O10      1.0000 0.92770  0.15854  0.69743  Biso   1.000  O
  H43      1.0000 0.12114  0.79136  0.99040  Biso   1.000  H
  C53      1.0000 0.18810  0.86418  0.86212  Biso   1.000  C
  H44      1.0000 0.24203  0.81944  0.01289  Biso   1.000  H
  C54      1.0000 0.33857  0.18601  0.60412  Biso   1.000  C
  O11      1.0000 0.21587  0.20934  0.45039  Biso   1.000  O
  C55      1.0000 0.55080  0.14099  0.57331  Biso   1.000  C
  C56      1.0000 0.63627  0.10394  0.38981  Biso   1.000  C
  H45      1.0000 0.73263  0.14311  0.17142  Biso   1.000  H
  H46      1.0000 0.85669  0.16550  0.19030  Biso   1.000  H
  C57      1.0000 0.87253  0.00818  0.11580  Biso   1.000  C
  C58      1.0000 0.76050  0.08551  0.53698  Biso   1.000  C
  C59      1.0000 0.90273  0.05199  0.67142  Biso   1.000  C
  H47      1.0000 0.82816  0.03024  0.82011  Biso   1.000  H
  H48      1.0000 0.79480  0.95321  0.72784  Biso   1.000  H
  H49      1.0000 0.26747  0.85683  0.82859  Biso   1.000  H
  H50      1.0000 0.14333  0.83444  0.80971  Biso   1.000  H
  C60      1.0000 0.12757  0.99176  0.88421  Biso   1.000  C
  C61      1.0000 0.44820  0.16504  0.64197  Biso   1.000  C
  H51      1.0000 0.27162  0.20084  0.65293  Biso   1.000  H
  C62      1.0000 0.11244  0.24923  0.52009  Biso   1.000  C
  H52      1.0000 0.62717  0.10132  0.31498  Biso   1.000  H
  C63      1.0000 0.74562  0.07813  0.42694  Biso   1.000  C
  H53      1.0000 0.87287  0.96416  0.18214  Biso   1.000  H
  H54      1.0000 0.83062  0.97806  0.06242  Biso   1.000  H
  H55      1.0000 0.95382  0.99900  0.08851  Biso   1.000  H
  O12      1.0000 0.87701  0.05448  0.56210  Biso   1.000  O
  H56      1.0000 0.97578  0.98622  0.68022  Biso   1.000  H
  H57      1.0000 0.12714  0.03579  0.81795  Biso   1.000  H
  H58      1.0000 0.16948  0.02188  0.93759  Biso   1.000  H
  H59      1.0000 0.04628  0.00094  0.91150  Biso   1.000  H
  H60      1.0000 0.45553  0.16671  0.71712  Biso   1.000  H
  H61      1.0000 0.11609  0.31819  0.56282  Biso   1.000  H
  H62      1.0000 0.10572  0.18620  0.56979  Biso   1.000  H
  C64      1.0000 0.00815  0.28215  0.45183  Biso   1.000  C
  H63      1.0000 0.81273  0.05495  0.37820  Biso   1.000  H
  H64      1.0000 0.00474  0.21156  0.41133  Biso   1.000  H
  C65      1.0000 0.01192  0.37818  0.37420  Biso   1.000  C
  H65      1.0000 0.93535  0.30819  0.49880  Biso   1.000  H
  H66      1.0000 0.07879  0.34842  0.32099  Biso   1.000  H
  H67      1.0000 0.02602  0.44488  0.41350  Biso   1.000  H
  C66      1.0000 0.90000  0.42156  0.31634  Biso   1.000  C
  H68      1.0000 0.90568  0.48623  0.26937  Biso   1.000  H
  H69      1.0000 0.83313  0.44946  0.36852  Biso   1.000  H
  H70      1.0000 0.88843  0.35717  0.27321  Biso   1.000  H
