data_image0
_cell_length_a       14.118
_cell_length_b       14.625
_cell_length_c       17.993
_cell_angle_alpha    73.42
_cell_angle_beta     72.76
_cell_angle_gamma    80.92

_symmetry_space_group_name_H-M    "P 1"
_symmetry_int_tables_number       1

loop_
  _symmetry_equiv_pos_as_xyz
  'x, y, z'

loop_
  _atom_site_label
  _atom_site_occupancy
  _atom_site_fract_x
  _atom_site_fract_y
  _atom_site_fract_z
  _atom_site_thermal_displace_type
  _atom_site_B_iso_or_equiv
  _atom_site_type_symbol
  O1       1.0000 0.48249  0.48915  0.32408  Biso   1.000  O
  C1       1.0000 0.43398  0.40640  0.37262  Biso   1.000  C
  C2       1.0000 0.43401  0.40635  0.37256  Biso   1.000  C
  C3       1.0000 0.56970  0.48626  0.26790  Biso   1.000  C
  C4       1.0000 0.43642  0.32791  0.34537  Biso   1.000  C
  C5       1.0000 0.43644  0.32784  0.34537  Biso   1.000  C
  C6       1.0000 0.37506  0.41539  0.44672  Biso   1.000  C
  C7       1.0000 0.37502  0.41534  0.44666  Biso   1.000  C
  O2       1.0000 0.48255  0.48922  0.32408  Biso   1.000  O
  N1       1.0000 0.62694  0.40462  0.26928  Biso   1.000  N
  N2       1.0000 0.58658  0.56969  0.21617  Biso   1.000  N
  N3       1.0000 0.62688  0.40455  0.26928  Biso   1.000  N
  C8       1.0000 0.37824  0.25565  0.39680  Biso   1.000  C
  H1       1.0000 0.47524  0.32314  0.29473  Biso   1.000  H
  H2       1.0000 0.47519  0.32316  0.29467  Biso   1.000  H
  C9       1.0000 0.31745  0.34311  0.49568  Biso   1.000  C
  C10      1.0000 0.31739  0.34304  0.49568  Biso   1.000  C
  H3       1.0000 0.37447  0.47020  0.46338  Biso   1.000  H
  H4       1.0000 0.37441  0.47013  0.46338  Biso   1.000  H
  C11      1.0000 0.67021  0.56539  0.15753  Biso   1.000  C
  C12      1.0000 0.67017  0.56534  0.15747  Biso   1.000  C
  C13      1.0000 0.70774  0.41187  0.20769  Biso   1.000  C
  C14      1.0000 0.70767  0.41187  0.20769  Biso   1.000  C
  O3       1.0000 0.38312  0.16989  0.37298  Biso   1.000  O
  O4       1.0000 0.38313  0.16982  0.37298  Biso   1.000  O
  C15      1.0000 0.31674  0.26149  0.47102  Biso   1.000  C
  C16      1.0000 0.31670  0.26144  0.47096  Biso   1.000  C
  H5       1.0000 0.27833  0.34857  0.54608  Biso   1.000  H
  O5       1.0000 0.68790  0.64993  0.10279  Biso   1.000  O
  N4       1.0000 0.73380  0.49011  0.14814  Biso   1.000  N
  O6       1.0000 0.77224  0.33668  0.20168  Biso   1.000  O
  O7       1.0000 0.77217  0.33668  0.20168  Biso   1.000  O
  C17      1.0000 0.35376  0.17519  0.30778  Biso   1.000  C
  C18      1.0000 0.35369  0.17519  0.30778  Biso   1.000  C
  H6       1.0000 0.27630  0.21278  0.50332  Biso   1.000  H
  H7       1.0000 0.27634  0.21273  0.50326  Biso   1.000  H
  C19      1.0000 0.76117  0.65388  0.03031  Biso   1.000  C
  C20      1.0000 0.76119  0.65390  0.03025  Biso   1.000  C
  C21      1.0000 0.75306  0.24852  0.26567  Biso   1.000  C
  C22      1.0000 0.75300  0.24845  0.26567  Biso   1.000  C
  N5       1.0000 0.30551  0.25428  0.27620  Biso   1.000  N
  N6       1.0000 0.37823  0.09414  0.28258  Biso   1.000  N
  C23      1.0000 0.72857  0.65646  0.96379  Biso   1.000  C
  C24      1.0000 0.85880  0.66292  0.02352  Biso   1.000  C
  C25      1.0000 0.85876  0.66287  0.02346  Biso   1.000  C
  C26      1.0000 0.85403  0.19147  0.25990  Biso   1.000  C
  H8       1.0000 0.70583  0.21317  0.25749  Biso   1.000  H
  H9       1.0000 0.72666  0.26251  0.31788  Biso   1.000  H
  H10      1.0000 0.72660  0.26244  0.31788  Biso   1.000  H
  H11      1.0000 0.75313  0.25860  0.31662  Biso   1.000  H
  H12      1.0000 0.68885  0.22757  0.27109  Biso   1.000  H
  C27      1.0000 0.83503  0.17490  0.24180  Biso   1.000  C
  C28      1.0000 0.28294  0.24926  0.21100  Biso   1.000  C
  C29      1.0000 0.28287  0.24926  0.21100  Biso   1.000  C
  C30      1.0000 0.35068  0.10270  0.21641  Biso   1.000  C
  C31      1.0000 0.35071  0.10265  0.21635  Biso   1.000  C
  H13      1.0000 0.66245  0.64877  0.96908  Biso   1.000  H
  C32      1.0000 0.79787  0.67101  0.88993  Biso   1.000  C
  C33      1.0000 0.79783  0.67096  0.88987  Biso   1.000  C
  C34      1.0000 0.92631  0.67579  0.94948  Biso   1.000  C
  H14      1.0000 0.87910  0.66030  0.06881  Biso   1.000  H
  H15      1.0000 0.87913  0.66025  0.06875  Biso   1.000  H
  H16      1.0000 0.84903  0.13851  0.30748  Biso   1.000  H
  H17      1.0000 0.90195  0.23239  0.25990  Biso   1.000  H
  O8       1.0000 0.89064  0.15478  0.19085  Biso   1.000  O
  H18      1.0000 0.84897  0.13844  0.30748  Biso   1.000  H
  H19      1.0000 0.90189  0.23232  0.25990  Biso   1.000  H
  H20      1.0000 0.82883  0.11617  0.28438  Biso   1.000  H
  H21      1.0000 0.89913  0.19809  0.23307  Biso   1.000  H
  O9       1.0000 0.82848  0.15651  0.16902  Biso   1.000  O
  N7       1.0000 0.30361  0.17762  0.17641  Biso   1.000  N
  O10      1.0000 0.23011  0.32894  0.17930  Biso   1.000  O
  N8       1.0000 0.30364  0.17756  0.17635  Biso   1.000  N
  O11      1.0000 0.37272  0.02981  0.18231  Biso   1.000  O
  O12      1.0000 0.37268  0.02976  0.18225  Biso   1.000  O
  C35      1.0000 0.89752  0.67973  0.88073  Biso   1.000  C
  O13      1.0000 0.76990  0.67100  0.82070  Biso   1.000  O
  C36      1.0000 0.89755  0.67968  0.88067  Biso   1.000  C
  H22      1.0000 0.99246  0.68209  0.94490  Biso   1.000  H
  H23      1.0000 0.99248  0.68210  0.94484  Biso   1.000  H
  C37      1.0000 0.84594  0.06923  0.19789  Biso   1.000  C
  C38      1.0000 0.84588  0.06916  0.19789  Biso   1.000  C
  C39      1.0000 0.91954  0.11089  0.13239  Biso   1.000  C
  H24      1.0000 0.96711  0.10179  0.16378  Biso   1.000  H
  H25      1.0000 0.78318  0.08728  0.18369  Biso   1.000  H
  C40      1.0000 0.20220  0.32901  0.11007  Biso   1.000  C
  C41      1.0000 0.20221  0.32894  0.11007  Biso   1.000  C
  C42      1.0000 0.42690  0.94431  0.21858  Biso   1.000  C
  C43      1.0000 0.42691  0.94424  0.21858  Biso   1.000  C
  C44      1.0000 0.71714  0.75069  0.78900  Biso   1.000  C
  H26      1.0000 0.94344  0.68779  0.83050  Biso   1.000  H
  C45      1.0000 0.90897  0.01076  0.14688  Biso   1.000  C
  C46      1.0000 0.89903  0.03501  0.13028  Biso   1.000  C
  H27      1.0000 0.83194  0.03181  0.25340  Biso   1.000  H
  H28      1.0000 0.83190  0.03176  0.25334  Biso   1.000  H
  H29      1.0000 0.88992  0.00046  0.18640  Biso   1.000  H
  H30      1.0000 0.93104  0.05143  0.09299  Biso   1.000  H
  H31      1.0000 0.93098  0.05136  0.09299  Biso   1.000  H
  H32      1.0000 0.94781  0.14889  0.07861  Biso   1.000  H
  C47      1.0000 0.27151  0.34349  0.03621  Biso   1.000  C
  C48      1.0000 0.27146  0.34351  0.03615  Biso   1.000  C
  C49      1.0000 0.10247  0.32029  0.11927  Biso   1.000  C
  H33      1.0000 0.48252  0.96101  0.23211  Biso   1.000  H
  H34      1.0000 0.38373  0.90801  0.26718  Biso   1.000  H
  C50      1.0000 0.46340  0.88717  0.15699  Biso   1.000  C
  H35      1.0000 0.48248  0.96096  0.23205  Biso   1.000  H
  H36      1.0000 0.38367  0.90794  0.26718  Biso   1.000  H
  N9       1.0000 0.69455  0.74574  0.72380  Biso   1.000  N
  N10      1.0000 0.69646  0.82240  0.82359  Biso   1.000  N
  N11      1.0000 0.69449  0.74567  0.72380  Biso   1.000  N
  O14      1.0000 0.86581  0.93431  0.14255  Biso   1.000  O
  O15      1.0000 0.84720  0.99311  0.11121  Biso   1.000  O
  H37      1.0000 0.96769  0.98612  0.16619  Biso   1.000  H
  H38      1.0000 0.96770  0.98605  0.16619  Biso   1.000  H
  H39      1.0000 0.96444  0.00981  0.10357  Biso   1.000  H
  C51      1.0000 0.23890  0.34613  0.96969  Biso   1.000  C
  C52      1.0000 0.23884  0.34607  0.96969  Biso   1.000  C
  H40      1.0000 0.33763  0.35118  0.03092  Biso   1.000  H
  H41      1.0000 0.33758  0.35119  0.03086  Biso   1.000  H
  C53      1.0000 0.07368  0.32422  0.05052  Biso   1.000  C
  H42      1.0000 0.05657  0.31216  0.16950  Biso   1.000  H
  C54      1.0000 0.07371  0.32417  0.05046  Biso   1.000  C
  H43      1.0000 0.40959  0.88271  0.13521  Biso   1.000  H
  O16      1.0000 0.54190  0.93338  0.09455  Biso   1.000  O
  H44      1.0000 0.40963  0.88266  0.13515  Biso   1.000  H
  H45      1.0000 0.48690  0.82288  0.18147  Biso   1.000  H
  C55      1.0000 0.64631  0.82483  0.69222  Biso   1.000  C
  C56      1.0000 0.64634  0.82478  0.69216  Biso   1.000  C
  C57      1.0000 0.64939  0.89732  0.78359  Biso   1.000  C
  C58      1.0000 0.64932  0.89732  0.78359  Biso   1.000  C
  C59      1.0000 0.90057  0.90200  0.07368  Biso   1.000  C
  O17      1.0000 0.31218  0.35002  0.89721  Biso   1.000  O
  C60      1.0000 0.14127  0.33710  0.97648  Biso   1.000  C
  O18      1.0000 0.31214  0.34997  0.89715  Biso   1.000  O
  H46      1.0000 0.00761  0.31793  0.05510  Biso   1.000  H
  H47      1.0000 0.00755  0.31786  0.05510  Biso   1.000  H
  C61      1.0000 0.58838  0.88160  0.03609  Biso   1.000  C
  O19      1.0000 0.61694  0.83012  0.62702  Biso   1.000  O
  O20      1.0000 0.61690  0.83007  0.62696  Biso   1.000  O
  N12      1.0000 0.62185  0.90581  0.71742  Biso   1.000  N
  N13      1.0000 0.62180  0.90583  0.71736  Biso   1.000  N
  O21      1.0000 0.62735  0.97021  0.81769  Biso   1.000  O
  C62      1.0000 0.84493  0.92539  0.01023  Biso   1.000  C
  C63      1.0000 0.84488  0.92541  0.01017  Biso   1.000  C
  H48      1.0000 0.96641  0.92437  0.04722  Biso   1.000  H
  H49      1.0000 0.90960  0.83272  0.09082  Biso   1.000  H
  H50      1.0000 0.96636  0.92439  0.04716  Biso   1.000  H
  H51      1.0000 0.90956  0.83267  0.09076  Biso   1.000  H
  H52      1.0000 0.88625  0.84071  0.11188  Biso   1.000  H
  H53      1.0000 0.97189  0.90510  0.05119  Biso   1.000  H
  C64      1.0000 0.32987  0.43456  0.84247  Biso   1.000  C
  H54      1.0000 0.12097  0.33972  0.93119  Biso   1.000  H
  H55      1.0000 0.12098  0.33965  0.93119  Biso   1.000  H
  H56      1.0000 0.54818  0.89064  0.99892  Biso   1.000  H
  C65      1.0000 0.68887  0.91586  0.99152  Biso   1.000  C
  H57      1.0000 0.54820  0.89066  0.99886  Biso   1.000  H
  C66      1.0000 0.68889  0.91588  0.99146  Biso   1.000  C
  H58      1.0000 0.59471  0.81376  0.06201  Biso   1.000  H
  H59      1.0000 0.59466  0.81378  0.06195  Biso   1.000  H
  C67      1.0000 0.62184  0.74430  0.60320  Biso   1.000  C
  C68      1.0000 0.57318  0.05564  0.78142  Biso   1.000  C
  C69      1.0000 0.57313  0.05565  0.78136  Biso   1.000  C
  O22      1.0000 0.74741  0.89357  0.04740  Biso   1.000  O
  H60      1.0000 0.84075  0.99384  0.98641  Biso   1.000  H
  H61      1.0000 0.87923  0.89355  0.96788  Biso   1.000  H
  H62      1.0000 0.84077  0.99386  0.98635  Biso   1.000  H
  N14      1.0000 0.26628  0.50993  0.85180  Biso   1.000  N
  N15      1.0000 0.41341  0.43033  0.78383  Biso   1.000  N
  N16      1.0000 0.26622  0.50986  0.85180  Biso   1.000  N
  N17      1.0000 0.41344  0.43028  0.78377  Biso   1.000  N
  H63      1.0000 0.68338  0.98430  0.96818  Biso   1.000  H
  H64      1.0000 0.68336  0.98437  0.96818  Biso   1.000  H
  H65      1.0000 0.71943  0.88446  0.94839  Biso   1.000  H
  C70      1.0000 0.56364  0.67211  0.65463  Biso   1.000  C
  C71      1.0000 0.56359  0.67213  0.65457  Biso   1.000  C
  C72      1.0000 0.68333  0.73853  0.52898  Biso   1.000  C
  H66      1.0000 0.51756  0.03894  0.76789  Biso   1.000  H
  C73      1.0000 0.53669  0.11271  0.84301  Biso   1.000  C
  H67      1.0000 0.61636  0.09196  0.73276  Biso   1.000  H
  C74      1.0000 0.53664  0.11273  0.84295  Biso   1.000  C
  C75      1.0000 0.29234  0.58808  0.79231  Biso   1.000  C
  C76      1.0000 0.29236  0.58810  0.79225  Biso   1.000  C
  C77      1.0000 0.43037  0.51369  0.73210  Biso   1.000  C
  C78      1.0000 0.43030  0.51369  0.73210  Biso   1.000  C
  C79      1.0000 0.56608  0.59362  0.62738  Biso   1.000  C
  C80      1.0000 0.56601  0.59362  0.62738  Biso   1.000  C
  H68      1.0000 0.52483  0.67681  0.70527  Biso   1.000  H
  C81      1.0000 0.68261  0.65691  0.50432  Biso   1.000  C
  C82      1.0000 0.68263  0.65692  0.50426  Biso   1.000  C
  H69      1.0000 0.72376  0.78724  0.49668  Biso   1.000  H
  H70      1.0000 0.72370  0.78717  0.49668  Biso   1.000  H
  H71      1.0000 0.59048  0.11723  0.86479  Biso   1.000  H
  O23      1.0000 0.45814  0.06651  0.90539  Biso   1.000  O
  H72      1.0000 0.59041  0.11723  0.86479  Biso   1.000  H
  H73      1.0000 0.51314  0.17702  0.81847  Biso   1.000  H
  O24      1.0000 0.22783  0.66334  0.79832  Biso   1.000  O
  O25      1.0000 0.22786  0.66329  0.79826  Biso   1.000  O
  N18      1.0000 0.37315  0.59542  0.73066  Biso   1.000  N
  O26      1.0000 0.51751  0.51080  0.67592  Biso   1.000  O
  O27      1.0000 0.51753  0.51082  0.67586  Biso   1.000  O
  C83      1.0000 0.62501  0.58463  0.55328  Biso   1.000  C
  H74      1.0000 0.72174  0.65144  0.45392  Biso   1.000  H
  H75      1.0000 0.72170  0.65139  0.45386  Biso   1.000  H
  C84      1.0000 0.41169  0.11835  0.96391  Biso   1.000  C
  C85      1.0000 0.41165  0.11830  0.96385  Biso   1.000  C
  C86      1.0000 0.24701  0.75150  0.73433  Biso   1.000  C
  C87      1.0000 0.24703  0.75152  0.73427  Biso   1.000  C
  H76      1.0000 0.62560  0.52981  0.53662  Biso   1.000  H
  H77      1.0000 0.62562  0.52983  0.53656  Biso   1.000  H
  C88      1.0000 0.31121  0.08409  0.00848  Biso   1.000  C
  C89      1.0000 0.31120  0.08416  0.00848  Biso   1.000  C
  H78      1.0000 0.40538  0.18612  0.93799  Biso   1.000  H
  H79      1.0000 0.45190  0.10931  0.00108  Biso   1.000  H
  H80      1.0000 0.45189  0.10937  0.00108  Biso   1.000  H
  C90      1.0000 0.14605  0.80848  0.74010  Biso   1.000  C
  H81      1.0000 0.29424  0.78684  0.74251  Biso   1.000  H
  H82      1.0000 0.27343  0.73753  0.68206  Biso   1.000  H
  H83      1.0000 0.29427  0.78679  0.74245  Biso   1.000  H
  H84      1.0000 0.24693  0.74142  0.68338  Biso   1.000  H
  H85      1.0000 0.31125  0.77240  0.72885  Biso   1.000  H
  C91      1.0000 0.16507  0.82507  0.75814  Biso   1.000  C
  O28      1.0000 0.25268  0.10631  0.95260  Biso   1.000  O
  O29      1.0000 0.25270  0.10633  0.95254  Biso   1.000  O
  H86      1.0000 0.31671  0.01558  0.03182  Biso   1.000  H
  H87      1.0000 0.28058  0.11549  0.05161  Biso   1.000  H
  H88      1.0000 0.31665  0.01566  0.03176  Biso   1.000  H
  H89      1.0000 0.28059  0.11558  0.05155  Biso   1.000  H
  O30      1.0000 0.10946  0.84519  0.80909  Biso   1.000  O
  H90      1.0000 0.15103  0.86151  0.69252  Biso   1.000  H
  H91      1.0000 0.15105  0.86153  0.69246  Biso   1.000  H
  H92      1.0000 0.09813  0.76756  0.74010  Biso   1.000  H
  H93      1.0000 0.17127  0.88380  0.71556  Biso   1.000  H
  H94      1.0000 0.10097  0.80188  0.76687  Biso   1.000  H
  O31      1.0000 0.17152  0.84351  0.83098  Biso   1.000  O
  C92      1.0000 0.15516  0.07449  0.98977  Biso   1.000  C
  C93      1.0000 0.15415  0.93081  0.80205  Biso   1.000  C
  C94      1.0000 0.08056  0.88907  0.86755  Biso   1.000  C
  H95      1.0000 0.03292  0.89818  0.83616  Biso   1.000  H
  H96      1.0000 0.21688  0.91274  0.81631  Biso   1.000  H
  H97      1.0000 0.21684  0.91269  0.81625  Biso   1.000  H
  C95      1.0000 0.09944  0.09795  0.92632  Biso   1.000  C
  C96      1.0000 0.09947  0.09790  0.92626  Biso   1.000  C
  H98      1.0000 0.12078  0.10640  0.03212  Biso   1.000  H
  H99      1.0000 0.15933  0.00611  0.01359  Biso   1.000  H
  H100     1.0000 0.12080  0.10642  0.03206  Biso   1.000  H
  H101     1.0000 0.15926  0.00611  0.01359  Biso   1.000  H
  H102     1.0000 0.16813  0.96821  0.74660  Biso   1.000  H
  C97      1.0000 0.09105  0.98920  0.85306  Biso   1.000  C
  C98      1.0000 0.10107  0.96496  0.86966  Biso   1.000  C
  H103     1.0000 0.11015  0.99949  0.81360  Biso   1.000  H
  H104     1.0000 0.06910  0.94859  0.90701  Biso   1.000  H
  H105     1.0000 0.06905  0.94861  0.90695  Biso   1.000  H
  H106     1.0000 0.05227  0.85106  0.92139  Biso   1.000  H
  O32      1.0000 0.13429  0.06566  0.85739  Biso   1.000  O
  O33      1.0000 0.13423  0.06559  0.85739  Biso   1.000  O
  O34      1.0000 0.15287  0.00684  0.88879  Biso   1.000  O
  H107     1.0000 0.03368  0.07551  0.95278  Biso   1.000  H
  H108     1.0000 0.09048  0.16723  0.90918  Biso   1.000  H
  H109     1.0000 0.11386  0.15918  0.88806  Biso   1.000  H
  H110     1.0000 0.02815  0.09480  0.94875  Biso   1.000  H
  H111     1.0000 0.03565  0.99015  0.89636  Biso   1.000  H
  H112     1.0000 0.03239  0.01383  0.83381  Biso   1.000  H
  H113     1.0000 0.03234  0.01385  0.83375  Biso   1.000  H
  O35      1.0000 0.28640  0.67435  0.31151  Biso   1.000  O
  C99      1.0000 0.23450  0.75371  0.27861  Biso   1.000  C
  C100     1.0000 0.31324  0.67336  0.38152  Biso   1.000  C
  N19      1.0000 0.20412  0.74532  0.21792  Biso   1.000  N
  N20      1.0000 0.22111  0.82952  0.30808  Biso   1.000  N
  C101     1.0000 0.24137  0.66028  0.45370  Biso   1.000  C
  C102     1.0000 0.41142  0.67990  0.37472  Biso   1.000  C
  C103     1.0000 0.15539  0.82443  0.18628  Biso   1.000  C
  C104     1.0000 0.17202  0.90450  0.26832  Biso   1.000  C
  C105     1.0000 0.27115  0.65560  0.52239  Biso   1.000  C
  H114     1.0000 0.17542  0.65484  0.45682  Biso   1.000  H
  H115     1.0000 0.45808  0.68811  0.32492  Biso   1.000  H
  C106     1.0000 0.44006  0.67376  0.44389  Biso   1.000  C
  O36      1.0000 0.11820  0.82571  0.12499  Biso   1.000  O
  N21      1.0000 0.13690  0.90701  0.20661  Biso   1.000  N
  O37      1.0000 0.15794  0.97982  0.29737  Biso   1.000  O
  O38      1.0000 0.19646  0.64976  0.59402  Biso   1.000  O
  C107     1.0000 0.36951  0.66098  0.51787  Biso   1.000  C
  H116     1.0000 0.50620  0.67817  0.44052  Biso   1.000  H
  C108     1.0000 0.11808  0.73950  0.10430  Biso   1.000  C
  C109     1.0000 0.10091  0.06392  0.26249  Biso   1.000  C
  C110     1.0000 0.17861  0.56527  0.64972  Biso   1.000  C
  H117     1.0000 0.38852  0.65611  0.56419  Biso   1.000  H
  C111     1.0000 0.06064  0.66908  0.15651  Biso   1.000  C
  C112     1.0000 0.17147  0.73481  0.02761  Biso   1.000  C
  H118     1.0000 0.04204  0.04581  0.25479  Biso   1.000  H
  H119     1.0000 0.14071  0.09755  0.21082  Biso   1.000  H
  C113     1.0000 0.07234  0.12606  0.31969  Biso   1.000  C
  N22      1.0000 0.24198  0.48937  0.64100  Biso   1.000  N
  N23      1.0000 0.09659  0.57063  0.70758  Biso   1.000  N
  C114     1.0000 0.05739  0.58990  0.13130  Biso   1.000  C
  H120     1.0000 0.02455  0.67482  0.20757  Biso   1.000  H
  C115     1.0000 0.16611  0.65380  0.00391  Biso   1.000  C
  H121     1.0000 0.20976  0.78398  0.99308  Biso   1.000  H
  O39      1.0000 0.99612  0.08477  0.38669  Biso   1.000  O
  H122     1.0000 0.12954  0.13156  0.33707  Biso   1.000  H
  H123     1.0000 0.04894  0.18968  0.29352  Biso   1.000  H
  C116     1.0000 0.21641  0.41175  0.70103  Biso   1.000  C
  C117     1.0000 0.07808  0.48663  0.76051  Biso   1.000  C
  O40      1.0000 0.00825  0.50866  0.18219  Biso   1.000  O
  C118     1.0000 0.10889  0.58099  0.05510  Biso   1.000  C
  H124     1.0000 0.20169  0.64858  0.95248  Biso   1.000  H
  C119     1.0000 0.95215  0.14487  0.44052  Biso   1.000  C
  O41      1.0000 0.28045  0.33690  0.69459  Biso   1.000  O
  N24      1.0000 0.13534  0.40497  0.76220  Biso   1.000  N
  O42      1.0000 0.99187  0.49128  0.81777  Biso   1.000  O
  C120     1.0000 0.92202  0.51329  0.23951  Biso   1.000  C
  H125     1.0000 0.10520  0.52707  0.03868  Biso   1.000  H
  H126     1.0000 0.93430  0.20861  0.41051  Biso   1.000  H
  H127     1.0000 0.99900  0.15000  0.46879  Biso   1.000  H
  C121     1.0000 0.86132  0.10139  0.49917  Biso   1.000  C
  C122     1.0000 0.25765  0.24558  0.75528  Biso   1.000  C
  C123     1.0000 0.94263  0.41002  0.86872  Biso   1.000  C
  N25      1.0000 0.90353  0.42931  0.29238  Biso   1.000  N
  N26      1.0000 0.86468  0.59495  0.23783  Biso   1.000  N
  O43      1.0000 0.78856  0.10741  0.45779  Biso   1.000  O
  H128     1.0000 0.87786  0.03497  0.52407  Biso   1.000  H
  H129     1.0000 0.83562  0.13530  0.54109  Biso   1.000  H
  C124     1.0000 0.33768  0.17145  0.73170  Biso   1.000  C
  H130     1.0000 0.25544  0.25174  0.80797  Biso   1.000  H
  H131     1.0000 0.19352  0.22758  0.75732  Biso   1.000  H
  C125     1.0000 0.93945  0.33085  0.84352  Biso   1.000  C
  C126     1.0000 0.89116  0.41895  0.94487  Biso   1.000  C
  C127     1.0000 0.82142  0.43465  0.35030  Biso   1.000  C
  C128     1.0000 0.78361  0.58817  0.29900  Biso   1.000  C
  C129     1.0000 0.71184  0.04885  0.50603  Biso   1.000  C
  O44      1.0000 0.33447  0.15816  0.65670  Biso   1.000  O
  H132     1.0000 0.32804  0.11166  0.77278  Biso   1.000  H
  H133     1.0000 0.40202  0.19174  0.72641  Biso   1.000  H
  C130     1.0000 0.88195  0.26043  0.89573  Biso   1.000  C
  H134     1.0000 0.97556  0.32519  0.79239  Biso   1.000  H
  C131     1.0000 0.83398  0.34612  0.99611  Biso   1.000  C
  H135     1.0000 0.89484  0.47287  0.96129  Biso   1.000  H
  O45      1.0000 0.80364  0.35017  0.40600  Biso   1.000  O
  N27      1.0000 0.75812  0.51055  0.35902  Biso   1.000  N
  O46      1.0000 0.71965  0.66311  0.30537  Biso   1.000  O
  C132     1.0000 0.63595  0.05729  0.45520  Biso   1.000  C
  H136     1.0000 0.73855  0.98300  0.52118  Biso   1.000  H
  H137     1.0000 0.67906  0.06979  0.55469  Biso   1.000  H
  C133     1.0000 0.41527  0.09635  0.62349  Biso   1.000  C
  O47      1.0000 0.88185  0.17423  0.87497  Biso   1.000  O
  C134     1.0000 0.82854  0.26518  0.97241  Biso   1.000  C
  H138     1.0000 0.79843  0.35136  0.04748  Biso   1.000  H
  C135     1.0000 0.72895  0.34441  0.47758  Biso   1.000  C
  C136     1.0000 0.74239  0.75436  0.24468  Biso   1.000  C
  O48      1.0000 0.68200  0.01507  0.38982  Biso   1.000  O
  H139     1.0000 0.57719  0.02487  0.48882  Biso   1.000  H
  H140     1.0000 0.61557  0.12407  0.43487  Biso   1.000  H
  H141     1.0000 0.43246  0.11674  0.56521  Biso   1.000  H
  H142     1.0000 0.47324  0.09905  0.64100  Biso   1.000  H
  C137     1.0000 0.38514  0.99898  0.65068  Biso   1.000  C
  C138     1.0000 0.84464  0.17558  0.81368  Biso   1.000  C
  H143     1.0000 0.79028  0.21596  0.00688  Biso   1.000  H
  C139     1.0000 0.75873  0.33964  0.54632  Biso   1.000  C
  C140     1.0000 0.63053  0.33896  0.48209  Biso   1.000  C
  C141     1.0000 0.66242  0.82847  0.26832  Biso   1.000  C
  H144     1.0000 0.74460  0.74820  0.19199  Biso   1.000  H
  H145     1.0000 0.80649  0.77241  0.24270  Biso   1.000  H
  C142     1.0000 0.61497  0.00096  0.34928  Biso   1.000  C
  O49      1.0000 0.31803  0.98486  0.61020  Biso   1.000  O
  H146     1.0000 0.35352  0.98474  0.70812  Biso   1.000  H
  H147     1.0000 0.44372  0.95473  0.64172  Biso   1.000  H
  N28      1.0000 0.79597  0.25468  0.78211  Biso   1.000  N
  N29      1.0000 0.86318  0.09298  0.79341  Biso   1.000  N
  H148     1.0000 0.82461  0.34508  0.54320  Biso   1.000  H
  C143     1.0000 0.68685  0.32657  0.61850  Biso   1.000  C
  C144     1.0000 0.56005  0.32618  0.55607  Biso   1.000  C
  H149     1.0000 0.61152  0.34390  0.43577  Biso   1.000  H
  O50      1.0000 0.66563  0.84176  0.34333  Biso   1.000  O
  H150     1.0000 0.67200  0.88829  0.22718  Biso   1.000  H
  H151     1.0000 0.59800  0.80818  0.27361  Biso   1.000  H
  C145     1.0000 0.58483  0.90357  0.37653  Biso   1.000  C
  H152     1.0000 0.64650  0.01519  0.29190  Biso   1.000  H
  H153     1.0000 0.55631  0.04519  0.35830  Biso   1.000  H
  C146     1.0000 0.36415  0.94263  0.54482  Biso   1.000  C
  C147     1.0000 0.76551  0.24629  0.72142  Biso   1.000  C
  C148     1.0000 0.82807  0.09549  0.73170  Biso   1.000  C
  C149     1.0000 0.58866  0.32009  0.62530  Biso   1.000  C
  O51      1.0000 0.71362  0.32557  0.68851  Biso   1.000  O
  H154     1.0000 0.49382  0.32176  0.55950  Biso   1.000  H
  H155     1.0000 0.56764  0.88319  0.43481  Biso   1.000  H
  H156     1.0000 0.52679  0.90088  0.35902  Biso   1.000  H
  C150     1.0000 0.28826  0.95108  0.49400  Biso   1.000  C
  H157     1.0000 0.42283  0.97505  0.51120  Biso   1.000  H
  H158     1.0000 0.38455  0.87587  0.56509  Biso   1.000  H
  N30      1.0000 0.77893  0.17049  0.69188  Biso   1.000  N
  O52      1.0000 0.84217  0.02019  0.70259  Biso   1.000  O
  H159     1.0000 0.54194  0.31188  0.67510  Biso   1.000  H
  O53      1.0000 0.21155  0.89260  0.54217  Biso   1.000  O
  H160     1.0000 0.26155  0.01701  0.47878  Biso   1.000  H
  H161     1.0000 0.32106  0.93015  0.44528  Biso   1.000  H
  C151     1.0000 0.89919  0.93609  0.73748  Biso   1.000  C
  C152     1.0000 0.13873  0.89855  0.50079  Biso   1.000  C
  H162     1.0000 0.95806  0.95420  0.74517  Biso   1.000  H
  H163     1.0000 0.85938  0.90237  0.78920  Biso   1.000  H
  C153     1.0000 0.92778  0.87388  0.68027  Biso   1.000  C
  C154     1.0000 0.04795  0.85505  0.55950  Biso   1.000  C
  H164     1.0000 0.12226  0.96497  0.47589  Biso   1.000  H
  H165     1.0000 0.16442  0.86471  0.45887  Biso   1.000  H
  H166     1.0000 0.87058  0.86838  0.66289  Biso   1.000  H
  H167     1.0000 0.95116  0.81025  0.70650  Biso   1.000  H
  O54      1.0000 0.00393  0.91517  0.61327  Biso   1.000  O
  H168     1.0000 0.06572  0.79138  0.58951  Biso   1.000  H
  H169     1.0000 0.00104  0.85001  0.53117  Biso   1.000  H
