data_image0
_cell_length_a       12.475
_cell_length_b       14.775
_cell_length_c       19.732
_cell_angle_alpha    72.71
_cell_angle_beta     88.5
_cell_angle_gamma    65.98

_symmetry_space_group_name_H-M    "P 1"
_symmetry_int_tables_number       1

loop_
  _symmetry_equiv_pos_as_xyz
  'x, y, z'

loop_
  _atom_site_label
  _atom_site_occupancy
  _atom_site_fract_x
  _atom_site_fract_y
  _atom_site_fract_z
  _atom_site_thermal_displace_type
  _atom_site_B_iso_or_equiv
  _atom_site_type_symbol
  C1       1.0000 0.46665  0.34506  0.88917  Biso   1.000  C
  C2       1.0000 0.61386  0.31853  0.97657  Biso   1.000  C
  C3       1.0000 0.61382  0.31860  0.97657  Biso   1.000  C
  C4       1.0000 0.61390  0.31860  0.97657  Biso   1.000  C
  O1       1.0000 0.57663  0.33455  0.90513  Biso   1.000  O
  N1       1.0000 0.39063  0.35839  0.93781  Biso   1.000  N
  N2       1.0000 0.44975  0.34160  0.82467  Biso   1.000  N
  O2       1.0000 0.57668  0.33460  0.90519  Biso   1.000  O
  N3       1.0000 0.39071  0.35839  0.93781  Biso   1.000  N
  C5       1.0000 0.62329  0.40020  0.99238  Biso   1.000  C
  C6       1.0000 0.62333  0.40012  0.99238  Biso   1.000  C
  C7       1.0000 0.64860  0.22199  0.02532  Biso   1.000  C
  C8       1.0000 0.28439  0.37254  0.91325  Biso   1.000  C
  C9       1.0000 0.28440  0.37252  0.91330  Biso   1.000  C
  C10      1.0000 0.28436  0.37259  0.91330  Biso   1.000  C
  C11      1.0000 0.33845  0.35784  0.80865  Biso   1.000  C
  C12      1.0000 0.33846  0.35781  0.80870  Biso   1.000  C
  C13      1.0000 0.33851  0.35789  0.80870  Biso   1.000  C
  H1       1.0000 0.60088  0.46633  0.95709  Biso   1.000  H
  C14      1.0000 0.66675  0.38226  0.06152  Biso   1.000  C
  H2       1.0000 0.64361  0.16642  0.01272  Biso   1.000  H
  C15      1.0000 0.69093  0.20732  0.09351  Biso   1.000  C
  H3       1.0000 0.64362  0.16640  0.01278  Biso   1.000  H
  C16      1.0000 0.69101  0.20732  0.09351  Biso   1.000  C
  N4       1.0000 0.25087  0.37578  0.84870  Biso   1.000  N
  O3       1.0000 0.19776  0.39059  0.95596  Biso   1.000  O
  N5       1.0000 0.25088  0.37575  0.84875  Biso   1.000  N
  O4       1.0000 0.32132  0.35516  0.74244  Biso   1.000  O
  C17      1.0000 0.69947  0.28608  0.11241  Biso   1.000  C
  H4       1.0000 0.67371  0.43727  0.07375  Biso   1.000  H
  H5       1.0000 0.67369  0.43732  0.07381  Biso   1.000  H
  O5       1.0000 0.73524  0.10599  0.14300  Biso   1.000  O
  C18      1.0000 0.22947  0.36655  0.02970  Biso   1.000  C
  C19      1.0000 0.22952  0.36660  0.02976  Biso   1.000  C
  C20      1.0000 0.21529  0.34940  0.72189  Biso   1.000  C
  C21      1.0000 0.21526  0.34947  0.72189  Biso   1.000  C
  H6       1.0000 0.72761  0.27468  0.15988  Biso   1.000  H
  C22      1.0000 0.65835  0.06698  0.17184  Biso   1.000  C
  C23      1.0000 0.28520  0.26367  0.07130  Biso   1.000  C
  C24      1.0000 0.28521  0.26364  0.07135  Biso   1.000  C
  C25      1.0000 0.19696  0.44718  0.05795  Biso   1.000  C
  C26      1.0000 0.19695  0.44721  0.05789  Biso   1.000  C
  C27      1.0000 0.28518  0.26372  0.07135  Biso   1.000  C
  C28      1.0000 0.19704  0.44718  0.05795  Biso   1.000  C
  C29      1.0000 0.22338  0.24123  0.75205  Biso   1.000  C
  C30      1.0000 0.22336  0.24128  0.75211  Biso   1.000  C
  H7       1.0000 0.14726  0.39775  0.73908  Biso   1.000  H
  H8       1.0000 0.20162  0.37164  0.66919  Biso   1.000  H
  H9       1.0000 0.20170  0.37164  0.66919  Biso   1.000  H
  N6       1.0000 0.70847  0.96680  0.20900  Biso   1.000  N
  N7       1.0000 0.54438  0.13089  0.16094  Biso   1.000  N
  N8       1.0000 0.54439  0.13086  0.16100  Biso   1.000  N
  H10      1.0000 0.30611  0.20856  0.05122  Biso   1.000  H
  C31      1.0000 0.30936  0.24379  0.14322  Biso   1.000  C
  C32      1.0000 0.22119  0.42395  0.13040  Biso   1.000  C
  C33      1.0000 0.22117  0.42400  0.13046  Biso   1.000  C
  H11      1.0000 0.15855  0.51761  0.02815  Biso   1.000  H
  H12      1.0000 0.15854  0.51763  0.02810  Biso   1.000  H
  H13      1.0000 0.15364  0.23654  0.73321  Biso   1.000  H
  O6       1.0000 0.33160  0.17243  0.73032  Biso   1.000  O
  H14      1.0000 0.22684  0.22106  0.80475  Biso   1.000  H
  O7       1.0000 0.33157  0.17248  0.73038  Biso   1.000  O
  H15      1.0000 0.22688  0.22113  0.80475  Biso   1.000  H
  C34      1.0000 0.63056  0.92997  0.23500  Biso   1.000  C
  C35      1.0000 0.63054  0.93002  0.23506  Biso   1.000  C
  C36      1.0000 0.47810  0.08341  0.19271  Biso   1.000  C
  O8       1.0000 0.35978  0.13823  0.18759  Biso   1.000  O
  C37      1.0000 0.27755  0.32112  0.17381  Biso   1.000  C
  O9       1.0000 0.35981  0.13818  0.18753  Biso   1.000  O
  H16      1.0000 0.19915  0.47889  0.15085  Biso   1.000  H
  H17      1.0000 0.19918  0.47884  0.15080  Biso   1.000  H
  C38      1.0000 0.36942  0.07006  0.76497  Biso   1.000  C
  C39      1.0000 0.36950  0.07006  0.76497  Biso   1.000  C
  O10      1.0000 0.66838  0.82760  0.26965  Biso   1.000  O
  N9       1.0000 0.51340  0.98318  0.23030  Biso   1.000  N
  O11      1.0000 0.66846  0.82760  0.26965  Biso   1.000  O
  N10      1.0000 0.51348  0.98318  0.23030  Biso   1.000  N
  H18      1.0000 0.29359  0.30499  0.22384  Biso   1.000  H
  N11      1.0000 0.48658  0.01686  0.76967  Biso   1.000  N
  N12      1.0000 0.29159  0.03324  0.79098  Biso   1.000  N
  N13      1.0000 0.48659  0.01683  0.76973  Biso   1.000  N
  N14      1.0000 0.29155  0.03331  0.79098  Biso   1.000  N
  C40      1.0000 0.77667  0.75881  0.24792  Biso   1.000  C
  C41      1.0000 0.52204  0.91662  0.80726  Biso   1.000  C
  C42      1.0000 0.34175  0.93298  0.82814  Biso   1.000  C
  C43      1.0000 0.34172  0.93303  0.82819  Biso   1.000  C
  H19      1.0000 0.84634  0.76350  0.26677  Biso   1.000  H
  C44      1.0000 0.78470  0.65062  0.27814  Biso   1.000  C
  H20      1.0000 0.77315  0.77895  0.19528  Biso   1.000  H
  H21      1.0000 0.84631  0.76355  0.26682  Biso   1.000  H
  O12      1.0000 0.64037  0.86179  0.81244  Biso   1.000  O
  N15      1.0000 0.45576  0.86915  0.83903  Biso   1.000  N
  O13      1.0000 0.26485  0.89397  0.85697  Biso   1.000  O
  O14      1.0000 0.26483  0.89402  0.85703  Biso   1.000  O
  H22      1.0000 0.79837  0.62837  0.33084  Biso   1.000  H
  O15      1.0000 0.67871  0.64493  0.25759  Biso   1.000  O
  H23      1.0000 0.85277  0.60234  0.26095  Biso   1.000  H
  H24      1.0000 0.79833  0.62844  0.33084  Biso   1.000  H
  O16      1.0000 0.67870  0.64495  0.25753  Biso   1.000  O
  H25      1.0000 0.85276  0.60236  0.26090  Biso   1.000  H
  C45      1.0000 0.69070  0.75624  0.85676  Biso   1.000  C
  C46      1.0000 0.30913  0.79272  0.90647  Biso   1.000  C
  C47      1.0000 0.66153  0.64220  0.19133  Biso   1.000  C
  C48      1.0000 0.72251  0.67891  0.82616  Biso   1.000  C
  C49      1.0000 0.71497  0.73630  0.92868  Biso   1.000  C
  C50      1.0000 0.35154  0.77804  0.97465  Biso   1.000  C
  C51      1.0000 0.30059  0.71396  0.88757  Biso   1.000  C
  N16      1.0000 0.55020  0.65851  0.17531  Biso   1.000  N
  N17      1.0000 0.74907  0.62434  0.15128  Biso   1.000  N
  N18      1.0000 0.74915  0.62434  0.15128  Biso   1.000  N
  C52      1.0000 0.77063  0.63341  0.97027  Biso   1.000  C
  H26      1.0000 0.69399  0.79140  0.94876  Biso   1.000  H
  H27      1.0000 0.70647  0.69505  0.77613  Biso   1.000  H
  C53      1.0000 0.77890  0.57601  0.86957  Biso   1.000  C
  H28      1.0000 0.70655  0.69505  0.77613  Biso   1.000  H
  C54      1.0000 0.33343  0.61770  0.93845  Biso   1.000  C
  H29      1.0000 0.27258  0.72526  0.84015  Biso   1.000  H
  C55      1.0000 0.33344  0.61768  0.93851  Biso   1.000  C
  C56      1.0000 0.33340  0.61775  0.93851  Biso   1.000  C
  H30      1.0000 0.35653  0.83362  0.98725  Biso   1.000  H
  C57      1.0000 0.38613  0.68149  0.02345  Biso   1.000  C
  C58      1.0000 0.53329  0.65505  0.11081  Biso   1.000  C
  C59      1.0000 0.71567  0.62749  0.08673  Biso   1.000  C
  C60      1.0000 0.80311  0.55283  0.94208  Biso   1.000  C
  O17      1.0000 0.80226  0.60952  0.04401  Biso   1.000  O
  H31      1.0000 0.80100  0.52112  0.84918  Biso   1.000  H
  H32      1.0000 0.32638  0.56270  0.92622  Biso   1.000  H
  C61      1.0000 0.37673  0.59992  0.00760  Biso   1.000  C
  C62      1.0000 0.37674  0.59989  0.00765  Biso   1.000  C
  O18      1.0000 0.42335  0.66549  0.09484  Biso   1.000  O
  N19      1.0000 0.60932  0.64170  0.06222  Biso   1.000  N
  H33      1.0000 0.84152  0.48240  0.97188  Biso   1.000  H
  H34      1.0000 0.84160  0.48240  0.97188  Biso   1.000  H
  H35      1.0000 0.39917  0.53371  0.04289  Biso   1.000  H
  H36      1.0000 0.39918  0.53369  0.04294  Biso   1.000  H
  H37      1.0000 0.39915  0.53376  0.04294  Biso   1.000  H
  O19      1.0000 0.97393  0.65831  0.69508  Biso   1.000  O
  C63      1.0000 0.05078  0.63404  0.64719  Biso   1.000  C
  C64      1.0000 0.99948  0.69990  0.74559  Biso   1.000  C
  C65      1.0000 0.99952  0.69998  0.74559  Biso   1.000  C
  N20      1.0000 0.00383  0.62653  0.59070  Biso   1.000  N
  N21      1.0000 0.16138  0.61886  0.66187  Biso   1.000  N
  C66      1.0000 0.99751  0.79745  0.72210  Biso   1.000  C
  C67      1.0000 0.01293  0.64465  0.81629  Biso   1.000  C
  C68      1.0000 0.08261  0.59931  0.54601  Biso   1.000  C
  C69      1.0000 0.22879  0.58833  0.61259  Biso   1.000  C
  H38      1.0000 0.98873  0.83388  0.67255  Biso   1.000  H
  C70      1.0000 0.00862  0.84094  0.77218  Biso   1.000  C
  C71      1.0000 0.02160  0.69148  0.86509  Biso   1.000  C
  H39      1.0000 0.01608  0.57614  0.83108  Biso   1.000  H
  O20      1.0000 0.04657  0.59662  0.48354  Biso   1.000  O
  O21      1.0000 0.04665  0.59662  0.48354  Biso   1.000  O
  N22      1.0000 0.19754  0.57472  0.55407  Biso   1.000  N
  O22      1.0000 0.34511  0.56641  0.62193  Biso   1.000  O
  O23      1.0000 0.99472  0.94556  0.75136  Biso   1.000  O
  C72      1.0000 0.01840  0.79002  0.84426  Biso   1.000  C
  H40      1.0000 0.03000  0.65484  0.91458  Biso   1.000  H
  C73      1.0000 0.92134  0.63974  0.46207  Biso   1.000  C
  C74      1.0000 0.37791  0.61536  0.66337  Biso   1.000  C
  C75      1.0000 0.07161  0.97393  0.71099  Biso   1.000  C
  H41      1.0000 0.02274  0.82231  0.87854  Biso   1.000  H
  C76      1.0000 0.86388  0.75676  0.44087  Biso   1.000  C
  H42      1.0000 0.90879  0.61772  0.42138  Biso   1.000  H
  H43      1.0000 0.88289  0.61115  0.50212  Biso   1.000  H
  C77      1.0000 0.45776  0.55485  0.72290  Biso   1.000  C
  C78      1.0000 0.33708  0.72253  0.63971  Biso   1.000  C
  N23      1.0000 0.17239  0.89995  0.70266  Biso   1.000  N
  N24      1.0000 0.03383  0.07631  0.68488  Biso   1.000  N
  O24      1.0000 0.92713  0.79322  0.38417  Biso   1.000  O
  H44      1.0000 0.77956  0.78366  0.42373  Biso   1.000  H
  H45      1.0000 0.86997  0.78051  0.48199  Biso   1.000  H
  C79      1.0000 0.49657  0.60245  0.76081  Biso   1.000  C
  H46      1.0000 0.48605  0.48108  0.73785  Biso   1.000  H
  C80      1.0000 0.37854  0.76709  0.67810  Biso   1.000  C
  H47      1.0000 0.28231  0.76389  0.59817  Biso   1.000  H
  C81      1.0000 0.23824  0.94044  0.66187  Biso   1.000  C
  C82      1.0000 0.10893  0.10398  0.64377  Biso   1.000  C
  C83      1.0000 0.89104  0.89608  0.35619  Biso   1.000  C
  H48      1.0000 0.55054  0.56141  0.80262  Biso   1.000  H
  C84      1.0000 0.45716  0.70975  0.73817  Biso   1.000  C
  H49      1.0000 0.55062  0.56141  0.80262  Biso   1.000  H
  C85      1.0000 0.45724  0.70975  0.73817  Biso   1.000  C
  O25      1.0000 0.34636  0.87601  0.65178  Biso   1.000  O
  N25      1.0000 0.21370  0.04100  0.62989  Biso   1.000  N
  N26      1.0000 0.21378  0.04100  0.62989  Biso   1.000  N
  O26      1.0000 0.07280  0.20692  0.61579  Biso   1.000  O
  N27      1.0000 0.78624  0.95914  0.37007  Biso   1.000  N
  N28      1.0000 0.96618  0.92383  0.31508  Biso   1.000  N
  H50      1.0000 0.48418  0.74295  0.76385  Biso   1.000  H
  H51      1.0000 0.48426  0.74295  0.76385  Biso   1.000  H
  C86      1.0000 0.13605  0.24338  0.55909  Biso   1.000  C
  C87      1.0000 0.76177  0.05969  0.33809  Biso   1.000  C
  C88      1.0000 0.92834  0.02618  0.28902  Biso   1.000  C
  C89      1.0000 0.07867  0.36040  0.53789  Biso   1.000  C
  H52      1.0000 0.22050  0.21638  0.57628  Biso   1.000  H
  H53      1.0000 0.13009  0.21953  0.51803  Biso   1.000  H
  H54      1.0000 0.22047  0.21645  0.57628  Biso   1.000  H
  O27      1.0000 0.65370  0.12402  0.34824  Biso   1.000  O
  N29      1.0000 0.82755  0.10019  0.29730  Biso   1.000  N
  O28      1.0000 0.00522  0.05458  0.24860  Biso   1.000  O
  O29      1.0000 0.95337  0.40349  0.51648  Biso   1.000  O
  H55      1.0000 0.09127  0.38232  0.57863  Biso   1.000  H
  H56      1.0000 0.11712  0.38899  0.49785  Biso   1.000  H
  C90      1.0000 0.62144  0.23295  0.32191  Biso   1.000  C
  C91      1.0000 0.99135  0.15912  0.22778  Biso   1.000  C
  C92      1.0000 0.99140  0.15920  0.22778  Biso   1.000  C
  C93      1.0000 0.91737  0.40073  0.45401  Biso   1.000  C
  C94      1.0000 0.54277  0.29038  0.26179  Biso   1.000  C
  C95      1.0000 0.66286  0.27758  0.36030  Biso   1.000  C
  C96      1.0000 0.98157  0.21004  0.15570  Biso   1.000  C
  C97      1.0000 0.00243  0.20267  0.27792  Biso   1.000  C
  N30      1.0000 0.80251  0.42534  0.44589  Biso   1.000  N
  N31      1.0000 0.99620  0.37358  0.40932  Biso   1.000  N
  C98      1.0000 0.50337  0.39767  0.23920  Biso   1.000  C
  H57      1.0000 0.51579  0.25711  0.23611  Biso   1.000  H
  H58      1.0000 0.51575  0.25719  0.23611  Biso   1.000  H
  C99      1.0000 0.62202  0.38478  0.33660  Biso   1.000  C
  H59      1.0000 0.71766  0.23617  0.40179  Biso   1.000  H
  C100     1.0000 0.62210  0.38478  0.33660  Biso   1.000  C
  H60      1.0000 0.71774  0.23617  0.40179  Biso   1.000  H
  H61      1.0000 0.97720  0.17783  0.12142  Biso   1.000  H
  C101     1.0000 0.97833  0.30866  0.13487  Biso   1.000  C
  C102     1.0000 0.97841  0.30866  0.13487  Biso   1.000  C
  C103     1.0000 0.00050  0.30014  0.25442  Biso   1.000  C
  H62      1.0000 0.01125  0.16616  0.32746  Biso   1.000  H
  C104     1.0000 0.77118  0.41173  0.38737  Biso   1.000  C
  C105     1.0000 0.77114  0.41180  0.38737  Biso   1.000  C
  C106     1.0000 0.94916  0.36610  0.35277  Biso   1.000  C
  C107     1.0000 0.54218  0.44526  0.27711  Biso   1.000  C
  H63      1.0000 0.44940  0.43873  0.19734  Biso   1.000  H
  O30      1.0000 0.65486  0.43365  0.37803  Biso   1.000  O
  H64      1.0000 0.96998  0.34520  0.08543  Biso   1.000  H
  C108     1.0000 0.98709  0.35548  0.18368  Biso   1.000  C
  H65      1.0000 0.97003  0.34527  0.08543  Biso   1.000  H
  O31      1.0000 0.02612  0.34175  0.30488  Biso   1.000  O
  N32      1.0000 0.83856  0.38128  0.33809  Biso   1.000  N
  H66      1.0000 0.51397  0.51903  0.26216  Biso   1.000  H
  H67      1.0000 0.98397  0.42392  0.16889  Biso   1.000  H
  Ne1      1.0000 0.46932  0.04365  0.99346  Biso   1.000  Ne
  He1      1.0000 0.35355  0.97227  0.08269  Biso   1.000  He
  He2      1.0000 0.60142  0.02686  0.93494  Biso   1.000  He
  He3      1.0000 0.47273  0.23719  0.06028  Biso   1.000  He
  He4      1.0000 0.52585  0.77229  0.94232  Biso   1.000  He
  Ar1      1.0000 0.49706  0.01582  0.98358  Biso   1.000  Ar
  Ne2      1.0000 0.00208  0.00270  0.49615  Biso   1.000  Ne
  He5      1.0000 0.88037  0.02686  0.52704  Biso   1.000  He
  He6      1.0000 0.16124  0.94221  0.44618  Biso   1.000  He
  He7      1.0000 0.82111  0.23741  0.30415  Biso   1.000  He
  Ar2      1.0000 0.00366  0.00234  0.49719  Biso   1.000  Ar
