data_image0
_cell_length_a       18.797
_cell_length_b       15.596
_cell_length_c       12.697
_cell_angle_alpha    90
_cell_angle_beta     106.37
_cell_angle_gamma    90

_symmetry_space_group_name_H-M    "P 1"
_symmetry_int_tables_number       1

loop_
  _symmetry_equiv_pos_as_xyz
  'x, y, z'

loop_
  _atom_site_label
  _atom_site_occupancy
  _atom_site_fract_x
  _atom_site_fract_y
  _atom_site_fract_z
  _atom_site_thermal_displace_type
  _atom_site_B_iso_or_equiv
  _atom_site_type_symbol
  C1       1.0000 0.57160  0.53950  0.64758  Biso   1.000  C
  N1       1.0000 0.63149  0.59990  0.64331  Biso   1.000  N
  C2       1.0000 0.57948  0.51218  0.76611  Biso   1.000  C
  H1       1.0000 0.57399  0.48801  0.60202  Biso   1.000  H
  H2       1.0000 0.52299  0.56803  0.61803  Biso   1.000  H
  C3       1.0000 0.64358  0.61631  0.53356  Biso   1.000  C
  H3       1.0000 0.67898  0.57598  0.69297  Biso   1.000  H
  H4       1.0000 0.62002  0.65600  0.67303  Biso   1.000  H
  C4       1.0000 0.50739  0.50378  0.79739  Biso   1.000  C
  H5       1.0000 0.60500  0.45499  0.77801  Biso   1.000  H
  H6       1.0000 0.61101  0.55598  0.81602  Biso   1.000  H
  C5       1.0000 0.70839  0.67793  0.54702  Biso   1.000  C
  H7       1.0000 0.59799  0.64202  0.48300  Biso   1.000  H
  H8       1.0000 0.65503  0.56098  0.50204  Biso   1.000  H
  N2       1.0000 0.48101  0.58868  0.82563  Biso   1.000  N
  H9       1.0000 0.46899  0.47897  0.73402  Biso   1.000  H
  H10      1.0000 0.51501  0.46499  0.86199  Biso   1.000  H
  N3       1.0000 0.68920  0.76590  0.56779  Biso   1.000  N
  H11      1.0000 0.75000  0.65799  0.60998  Biso   1.000  H
  H12      1.0000 0.72397  0.67697  0.47799  Biso   1.000  H
  C6       1.0000 0.41628  0.58162  0.87127  Biso   1.000  C
  H13      1.0000 0.52303  0.61702  0.88202  Biso   1.000  H
  H14      1.0000 0.46701  0.62503  0.75799  Biso   1.000  H
  C7       1.0000 0.75462  0.81130  0.63732  Biso   1.000  C
  C8       1.0000 0.65740  0.81412  0.46362  Biso   1.000  C
  C9       1.0000 0.40812  0.65869  0.94104  Biso   1.000  C
  H15      1.0000 0.42198  0.52898  0.91797  Biso   1.000  H
  H16      1.0000 0.37000  0.57701  0.80896  Biso   1.000  H
  C10      1.0000 0.76091  0.80027  0.75782  Biso   1.000  C
  H17      1.0000 0.75002  0.87401  0.61901  Biso   1.000  H
  H18      1.0000 0.80000  0.78802  0.62304  Biso   1.000  H
  C11      1.0000 0.59760  0.87638  0.47200  Biso   1.000  C
  H19      1.0000 0.63499  0.77199  0.40403  Biso   1.000  H
  H20      1.0000 0.69801  0.84701  0.44499  Biso   1.000  H
  N4       1.0000 0.39928  0.74102  0.88062  Biso   1.000  N
  H21      1.0000 0.36300  0.64997  0.96698  Biso   1.000  H
  H22      1.0000 0.45302  0.66203  0.00498  Biso   1.000  H
  N5       1.0000 0.69922  0.84977  0.78532  Biso   1.000  N
  H23      1.0000 0.75700  0.73801  0.77498  Biso   1.000  H
  H24      1.0000 0.80999  0.82303  0.80297  Biso   1.000  H
  N6       1.0000 0.53060  0.82797  0.47914  Biso   1.000  N
  H25      1.0000 0.61700  0.91299  0.53898  Biso   1.000  H
  H26      1.0000 0.58399  0.91402  0.40501  Biso   1.000  H
  C12      1.0000 0.41022  0.81213  0.96238  Biso   1.000  C
  C13      1.0000 0.32492  0.74628  0.80297  Biso   1.000  C
  C14      1.0000 0.69621  0.84182  0.89917  Biso   1.000  C
  H27      1.0000 0.70603  0.91203  0.77104  Biso   1.000  H
  H28      1.0000 0.65099  0.82899  0.73599  Biso   1.000  H
  C15      1.0000 0.46780  0.88132  0.49219  Biso   1.000  C
  H29      1.0000 0.51201  0.79399  0.41002  Biso   1.000  H
  H30      1.0000 0.54600  0.78802  0.54300  Biso   1.000  H
  H31      1.0000 0.39000  0.86599  0.92298  Biso   1.000  H
  C16      1.0000 0.48961  0.82823  0.02731  Biso   1.000  C
  H32      1.0000 0.38097  0.79803  0.01500  Biso   1.000  H
  C17      1.0000 0.31501  0.81559  0.71547  Biso   1.000  C
  H33      1.0000 0.28900  0.75801  0.84598  Biso   1.000  H
  H34      1.0000 0.31300  0.68998  0.76496  Biso   1.000  H
  C18      1.0000 0.64961  0.91459  0.92602  Biso   1.000  C
  H35      1.0000 0.74802  0.84502  0.94999  Biso   1.000  H
  H36      1.0000 0.67399  0.78501  0.90902  Biso   1.000  H
  C19      1.0000 0.39932  0.82489  0.47421  Biso   1.000  C
  H37      1.0000 0.45698  0.92902  0.43703  Biso   1.000  H
  H38      1.0000 0.48102  0.90600  0.56804  Biso   1.000  H
  N7       1.0000 0.53802  0.84419  0.95409  Biso   1.000  N
  H39      1.0000 0.49098  0.87997  0.07500  Biso   1.000  H
  H40      1.0000 0.50898  0.77699  0.07402  Biso   1.000  H
  N8       1.0000 0.37018  0.80758  0.65177  Biso   1.000  N
  H41      1.0000 0.26398  0.81098  0.66400  Biso   1.000  H
  H42      1.0000 0.32101  0.87298  0.75199  Biso   1.000  H
  H43      1.0000 0.68301  0.96403  0.95499  Biso   1.000  H
  H44      1.0000 0.61202  0.93197  0.85600  Biso   1.000  H
  C20      1.0000 0.60868  0.89151  0.00860  Biso   1.000  C
  C21      1.0000 0.34651  0.84919  0.54193  Biso   1.000  C
  H45      1.0000 0.41598  0.76500  0.49301  Biso   1.000  H
  H46      1.0000 0.37099  0.82797  0.39500  Biso   1.000  H
  H47      1.0000 0.50901  0.87901  0.88998  Biso   1.000  H
  H48      1.0000 0.55098  0.78802  0.92799  Biso   1.000  H
  H49      1.0000 0.41800  0.83502  0.69503  Biso   1.000  H
  H50      1.0000 0.37899  0.74500  0.64101  Biso   1.000  H
  H51      1.0000 0.59698  0.94499  0.04299  Biso   1.000  H
  H52      1.0000 0.64099  0.85400  0.06597  Biso   1.000  H
  H53      1.0000 0.34699  0.91299  0.55203  Biso   1.000  H
  H54      1.0000 0.29502  0.83002  0.50204  Biso   1.000  H
  C22      1.0000 0.42842  0.46050  0.35240  Biso   1.000  C
  N9       1.0000 0.36848  0.40010  0.35667  Biso   1.000  N
  C23      1.0000 0.42049  0.48782  0.23386  Biso   1.000  C
  H55      1.0000 0.42599  0.51199  0.39804  Biso   1.000  H
  H56      1.0000 0.47700  0.43197  0.38203  Biso   1.000  H
  C24      1.0000 0.35639  0.38369  0.46641  Biso   1.000  C
  H57      1.0000 0.32099  0.42402  0.30700  Biso   1.000  H
  H58      1.0000 0.38002  0.34400  0.32703  Biso   1.000  H
  C25      1.0000 0.49258  0.49622  0.20259  Biso   1.000  C
  H59      1.0000 0.39497  0.54501  0.22196  Biso   1.000  H
  H60      1.0000 0.38903  0.44402  0.18404  Biso   1.000  H
  C26      1.0000 0.29160  0.32207  0.45303  Biso   1.000  C
  H61      1.0000 0.40198  0.35798  0.51698  Biso   1.000  H
  H62      1.0000 0.34501  0.43902  0.49802  Biso   1.000  H
  N10      1.0000 0.51903  0.41132  0.17443  Biso   1.000  N
  H63      1.0000 0.53098  0.52103  0.26596  Biso   1.000  H
  H64      1.0000 0.48501  0.53501  0.13799  Biso   1.000  H
  N11      1.0000 0.31077  0.23410  0.43218  Biso   1.000  N
  H65      1.0000 0.25002  0.34201  0.38999  Biso   1.000  H
  H66      1.0000 0.27600  0.32303  0.52199  Biso   1.000  H
  C27      1.0000 0.58369  0.41838  0.12871  Biso   1.000  C
  H67      1.0000 0.47701  0.38298  0.11804  Biso   1.000  H
  H68      1.0000 0.53301  0.37497  0.24199  Biso   1.000  H
  C28      1.0000 0.24542  0.18870  0.36274  Biso   1.000  C
  C29      1.0000 0.34259  0.18588  0.53643  Biso   1.000  C
  C30      1.0000 0.59191  0.34131  0.05902  Biso   1.000  C
  H69      1.0000 0.57799  0.47102  0.08200  Biso   1.000  H
  H70      1.0000 0.63002  0.42299  0.19102  Biso   1.000  H
  C31      1.0000 0.23913  0.19973  0.24224  Biso   1.000  C
  H71      1.0000 0.25000  0.12599  0.38096  Biso   1.000  H
  H72      1.0000 0.19999  0.21198  0.37702  Biso   1.000  H
  C32      1.0000 0.40237  0.12362  0.52798  Biso   1.000  C
  H73      1.0000 0.36500  0.22801  0.59603  Biso   1.000  H
  H74      1.0000 0.30202  0.15299  0.55499  Biso   1.000  H
  N12      1.0000 0.60070  0.25898  0.11944  Biso   1.000  N
  H75      1.0000 0.63702  0.35003  0.03300  Biso   1.000  H
  H76      1.0000 0.54701  0.33797  0.99499  Biso   1.000  H
  N13      1.0000 0.30082  0.15023  0.21474  Biso   1.000  N
  H77      1.0000 0.24303  0.26199  0.22500  Biso   1.000  H
  H78      1.0000 0.18998  0.17697  0.19701  Biso   1.000  H
  N14      1.0000 0.46939  0.17203  0.52092  Biso   1.000  N
  H79      1.0000 0.38302  0.08701  0.46100  Biso   1.000  H
  H80      1.0000 0.41597  0.08598  0.59496  Biso   1.000  H
  C33      1.0000 0.58980  0.18787  0.03760  Biso   1.000  C
  C34      1.0000 0.67511  0.25372  0.19701  Biso   1.000  C
  C35      1.0000 0.30381  0.15818  0.10080  Biso   1.000  C
  H81      1.0000 0.29401  0.08797  0.22902  Biso   1.000  H
  H82      1.0000 0.34898  0.17101  0.26399  Biso   1.000  H
  C36      1.0000 0.53222  0.11868  0.50779  Biso   1.000  C
  H83      1.0000 0.48803  0.20601  0.59004  Biso   1.000  H
  H84      1.0000 0.45397  0.21198  0.45698  Biso   1.000  H
  C37      1.0000 0.51041  0.17177  0.97267  Biso   1.000  C
  H85      1.0000 0.61002  0.13401  0.07700  Biso   1.000  H
  H86      1.0000 0.61899  0.20197  0.98498  Biso   1.000  H
  C38      1.0000 0.68501  0.18441  0.28451  Biso   1.000  C
  H87      1.0000 0.71102  0.24199  0.15399  Biso   1.000  H
  H88      1.0000 0.68702  0.31002  0.23501  Biso   1.000  H
  C39      1.0000 0.35041  0.08541  0.07396  Biso   1.000  C
  H89      1.0000 0.25200  0.15498  0.04999  Biso   1.000  H
  H90      1.0000 0.32600  0.21499  0.09103  Biso   1.000  H
  C40      1.0000 0.60070  0.17511  0.52576  Biso   1.000  C
  H91      1.0000 0.54300  0.07098  0.56303  Biso   1.000  H
  H92      1.0000 0.51902  0.09400  0.43202  Biso   1.000  H
  N15      1.0000 0.46200  0.15581  0.04589  Biso   1.000  N
  H93      1.0000 0.50899  0.12003  0.92497  Biso   1.000  H
  H94      1.0000 0.49100  0.22301  0.92604  Biso   1.000  H
  N16      1.0000 0.62979  0.19242  0.34821  Biso   1.000  N
  H95      1.0000 0.73598  0.18902  0.33598  Biso   1.000  H
  H96      1.0000 0.67901  0.12702  0.24798  Biso   1.000  H
  H97      1.0000 0.31702  0.03597  0.04498  Biso   1.000  H
  H98      1.0000 0.38800  0.06803  0.14398  Biso   1.000  H
  C41      1.0000 0.39129  0.10849  0.99138  Biso   1.000  C
  C42      1.0000 0.65353  0.15081  0.45812  Biso   1.000  C
  H99      1.0000 0.58399  0.23500  0.50697  Biso   1.000  H
  H100     1.0000 0.62898  0.17203  0.60498  Biso   1.000  H
  H101     1.0000 0.49102  0.12099  0.11000  Biso   1.000  H
  H102     1.0000 0.44899  0.21198  0.07199  Biso   1.000  H
  H103     1.0000 0.58198  0.16498  0.30503  Biso   1.000  H
  H104     1.0000 0.62098  0.25500  0.35896  Biso   1.000  H
  H105     1.0000 0.40299  0.05501  0.95699  Biso   1.000  H
  H106     1.0000 0.35898  0.14600  0.93400  Biso   1.000  H
  H107     1.0000 0.65299  0.08701  0.44803  Biso   1.000  H
  H108     1.0000 0.70501  0.16998  0.49802  Biso   1.000  H
  C43      1.0000 0.73911  0.30027  0.74223  Biso   1.000  C
  N17      1.0000 0.80080  0.34977  0.71473  Biso   1.000  N
  C44      1.0000 0.74540  0.31130  0.86273  Biso   1.000  C
  H109     1.0000 0.74301  0.23801  0.72499  Biso   1.000  H
  H110     1.0000 0.69001  0.32303  0.69700  Biso   1.000  H
  C45      1.0000 0.80380  0.34182  0.60079  Biso   1.000  C
  H111     1.0000 0.79400  0.41203  0.72901  Biso   1.000  H
  H112     1.0000 0.84901  0.32899  0.76398  Biso   1.000  H
  N18      1.0000 0.81081  0.26590  0.93217  Biso   1.000  N
  H113     1.0000 0.75000  0.37401  0.88103  Biso   1.000  H
  H114     1.0000 0.70003  0.28802  0.87701  Biso   1.000  H
  C46      1.0000 0.85041  0.41459  0.57403  Biso   1.000  C
  H115     1.0000 0.75199  0.34502  0.54998  Biso   1.000  H
  H116     1.0000 0.82598  0.28501  0.59102  Biso   1.000  H
  C47      1.0000 0.79158  0.17793  0.95302  Biso   1.000  C
  C48      1.0000 0.84263  0.31412  0.03642  Biso   1.000  C
  C49      1.0000 0.89128  0.39151  0.49137  Biso   1.000  C
  H117     1.0000 0.81700  0.46403  0.54497  Biso   1.000  H
  H118     1.0000 0.88798  0.43197  0.64397  Biso   1.000  H
  C50      1.0000 0.85638  0.11631  0.96640  Biso   1.000  C
  H119     1.0000 0.75000  0.15799  0.88998  Biso   1.000  H
  H120     1.0000 0.77598  0.17697  0.02198  Biso   1.000  H
  C51      1.0000 0.90241  0.37638  0.02797  Biso   1.000  C
  H121     1.0000 0.86498  0.27199  0.09602  Biso   1.000  H
  H122     1.0000 0.80200  0.34701  0.05497  Biso   1.000  H
  N19      1.0000 0.96198  0.34419  0.54587  Biso   1.000  N
  H123     1.0000 0.90298  0.44499  0.45698  Biso   1.000  H
  H124     1.0000 0.85902  0.35400  0.43399  Biso   1.000  H
  N20      1.0000 0.86848  0.09990  0.85674  Biso   1.000  N
  H125     1.0000 0.84500  0.06098  0.99801  Biso   1.000  H
  H126     1.0000 0.90202  0.14202  0.01697  Biso   1.000  H
  H127     1.0000 0.88301  0.41299  0.96099  Biso   1.000  H
  N21      1.0000 0.96943  0.32797  0.02091  Biso   1.000  N
  H128     1.0000 0.91603  0.41402  0.09503  Biso   1.000  H
  H129     1.0000 0.99100  0.37901  0.60998  Biso   1.000  H
  H130     1.0000 0.94897  0.28802  0.57198  Biso   1.000  H
  C52      1.0000 0.01041  0.32823  0.47274  Biso   1.000  C
  C53      1.0000 0.92841  0.03950  0.85239  Biso   1.000  C
  H131     1.0000 0.82097  0.07598  0.80699  Biso   1.000  H
  H132     1.0000 0.88001  0.15600  0.82702  Biso   1.000  H
  H133     1.0000 0.95401  0.28802  0.95696  Biso   1.000  H
  H134     1.0000 0.98801  0.29399  0.09003  Biso   1.000  H
  C54      1.0000 0.03220  0.38132  0.00777  Biso   1.000  C
  H135     1.0000 0.99099  0.27699  0.42603  Biso   1.000  H
  C55      1.0000 0.08979  0.31213  0.53758  Biso   1.000  C
  H136     1.0000 0.00898  0.37997  0.42496  Biso   1.000  H
  C56      1.0000 0.92049  0.01218  0.73393  Biso   1.000  C
  H137     1.0000 0.97698  0.06803  0.88202  Biso   1.000  H
  H138     1.0000 0.92603  0.98801  0.89803  Biso   1.000  H
  H139     1.0000 0.01900  0.40600  0.93201  Biso   1.000  H
  C57      1.0000 0.10071  0.32489  0.02583  Biso   1.000  C
  H140     1.0000 0.04299  0.42902  0.06302  Biso   1.000  H
  N22      1.0000 0.10069  0.24102  0.61942  Biso   1.000  N
  H141     1.0000 0.11898  0.29803  0.48497  Biso   1.000  H
  H142     1.0000 0.11000  0.36599  0.57699  Biso   1.000  H
  C58      1.0000 0.99261  0.00378  0.70258  Biso   1.000  C
  H143     1.0000 0.88901  0.05598  0.68403  Biso   1.000  H
  H144     1.0000 0.89503  0.95499  0.72203  Biso   1.000  H
  C59      1.0000 0.15351  0.34919  0.95811  Biso   1.000  C
  H145     1.0000 0.08399  0.26500  0.00704  Biso   1.000  H
  H146     1.0000 0.12902  0.32797  0.10497  Biso   1.000  H
  C60      1.0000 0.09190  0.15869  0.55901  Biso   1.000  C
  C61      1.0000 0.17509  0.24628  0.69700  Biso   1.000  C
  H147     1.0000 0.98500  0.96499  0.63798  Biso   1.000  H
  H148     1.0000 0.03103  0.97897  0.76603  Biso   1.000  H
  N23      1.0000 0.01902  0.08868  0.67442  Biso   1.000  N
  N24      1.0000 0.12982  0.30758  0.84820  Biso   1.000  N
  H149     1.0000 0.15303  0.41299  0.94802  Biso   1.000  H
  H150     1.0000 0.20500  0.33002  0.99801  Biso   1.000  H
  C62      1.0000 0.08367  0.08162  0.62870  Biso   1.000  C
  H151     1.0000 0.13701  0.14997  0.53299  Biso   1.000  H
  H152     1.0000 0.04699  0.16203  0.49498  Biso   1.000  H
  C63      1.0000 0.18499  0.31559  0.78450  Biso   1.000  C
  H153     1.0000 0.21101  0.25801  0.65398  Biso   1.000  H
  H154     1.0000 0.18701  0.18998  0.73500  Biso   1.000  H
  H155     1.0000 0.97700  0.11702  0.61803  Biso   1.000  H
  H156     1.0000 0.03299  0.12503  0.74198  Biso   1.000  H
  H157     1.0000 0.08202  0.33502  0.80502  Biso   1.000  H
  H158     1.0000 0.12098  0.24500  0.85903  Biso   1.000  H
  H159     1.0000 0.07797  0.02898  0.58199  Biso   1.000  H
  H160     1.0000 0.13001  0.07701  0.69100  Biso   1.000  H
  H161     1.0000 0.23597  0.31098  0.83597  Biso   1.000  H
  H162     1.0000 0.17900  0.37298  0.74797  Biso   1.000  H
  C64      1.0000 0.26093  0.69973  0.25783  Biso   1.000  C
  N25      1.0000 0.19918  0.65023  0.28533  Biso   1.000  N
  C65      1.0000 0.25459  0.68870  0.13733  Biso   1.000  C
  H163     1.0000 0.25701  0.76199  0.27499  Biso   1.000  H
  H164     1.0000 0.31001  0.67697  0.30298  Biso   1.000  H
  C66      1.0000 0.19617  0.65818  0.39919  Biso   1.000  C
  H165     1.0000 0.20597  0.58797  0.27097  Biso   1.000  H
  H166     1.0000 0.15101  0.67101  0.23600  Biso   1.000  H
  N26      1.0000 0.18921  0.73410  0.06780  Biso   1.000  N
  H167     1.0000 0.24998  0.62599  0.11903  Biso   1.000  H
  H168     1.0000 0.30000  0.71198  0.12297  Biso   1.000  H
  C67      1.0000 0.14963  0.58541  0.42603  Biso   1.000  C
  H169     1.0000 0.24798  0.65498  0.45000  Biso   1.000  H
  H170     1.0000 0.17400  0.71499  0.40904  Biso   1.000  H
  C68      1.0000 0.20840  0.82207  0.04704  Biso   1.000  C
  C69      1.0000 0.15741  0.68588  0.96364  Biso   1.000  C
  C70      1.0000 0.10869  0.60849  0.50861  Biso   1.000  C
  H171     1.0000 0.18302  0.53597  0.45500  Biso   1.000  H
  H172     1.0000 0.11198  0.56803  0.35601  Biso   1.000  H
  C71      1.0000 0.14359  0.88369  0.03357  Biso   1.000  C
  H173     1.0000 0.25002  0.84201  0.11000  Biso   1.000  H
  H174     1.0000 0.22399  0.82303  0.97800  Biso   1.000  H
  C72      1.0000 0.09761  0.62362  0.97201  Biso   1.000  C
  H175     1.0000 0.13500  0.72801  0.90404  Biso   1.000  H
  H176     1.0000 0.19802  0.65299  0.94500  Biso   1.000  H
  N27      1.0000 0.03799  0.65581  0.45410  Biso   1.000  N
  H177     1.0000 0.09699  0.55501  0.54300  Biso   1.000  H
  H178     1.0000 0.14100  0.64600  0.56599  Biso   1.000  H
  N28      1.0000 0.13150  0.90010  0.14332  Biso   1.000  N
  H179     1.0000 0.15497  0.93902  0.00197  Biso   1.000  H
  H180     1.0000 0.09800  0.85798  0.98301  Biso   1.000  H
  H181     1.0000 0.11701  0.58701  0.03899  Biso   1.000  H
  N29      1.0000 0.03060  0.67203  0.97907  Biso   1.000  N
  H182     1.0000 0.08401  0.58598  0.90503  Biso   1.000  H
  H183     1.0000 0.00902  0.62099  0.38999  Biso   1.000  H
  H184     1.0000 0.05100  0.71198  0.42800  Biso   1.000  H
  C73      1.0000 0.98963  0.67177  0.52732  Biso   1.000  C
  C74      1.0000 0.07162  0.96050  0.14759  Biso   1.000  C
  H185     1.0000 0.17900  0.92402  0.19299  Biso   1.000  H
  H186     1.0000 0.12003  0.84400  0.17304  Biso   1.000  H
  H187     1.0000 0.04601  0.71198  0.04301  Biso   1.000  H
  C75      1.0000 0.96782  0.61868  0.99220  Biso   1.000  C
  H188     1.0000 0.01203  0.70601  0.91003  Biso   1.000  H
  H189     1.0000 0.00900  0.72301  0.57403  Biso   1.000  H
  C76      1.0000 0.91018  0.68787  0.46239  Biso   1.000  C
  H190     1.0000 0.99099  0.62003  0.57502  Biso   1.000  H
  C77      1.0000 0.07950  0.98782  0.26612  Biso   1.000  C
  H191     1.0000 0.02300  0.93197  0.11804  Biso   1.000  H
  H192     1.0000 0.07401  0.01199  0.10203  Biso   1.000  H
  C78      1.0000 0.89928  0.67511  0.97422  Biso   1.000  C
  H193     1.0000 0.95700  0.57098  0.93704  Biso   1.000  H
  H194     1.0000 0.98102  0.59400  0.06797  Biso   1.000  H
  N30      1.0000 0.89930  0.75898  0.38063  Biso   1.000  N
  H195     1.0000 0.88099  0.70197  0.51501  Biso   1.000  H
  H196     1.0000 0.89002  0.63401  0.42299  Biso   1.000  H
  C79      1.0000 0.00741  0.99622  0.29740  Biso   1.000  C
  H197     1.0000 0.11102  0.94402  0.31603  Biso   1.000  H
  H198     1.0000 0.10501  0.04501  0.27803  Biso   1.000  H
  C80      1.0000 0.84651  0.65081  0.04186  Biso   1.000  C
  H199     1.0000 0.91600  0.73500  0.99302  Biso   1.000  H
  H200     1.0000 0.87101  0.67203  0.89501  Biso   1.000  H
  C81      1.0000 0.90807  0.84131  0.44097  Biso   1.000  C
  C82      1.0000 0.82488  0.75372  0.30298  Biso   1.000  C
  N31      1.0000 0.98102  0.91132  0.32564  Biso   1.000  N
  H201     1.0000 0.96901  0.02103  0.23403  Biso   1.000  H
  H202     1.0000 0.01502  0.03501  0.36200  Biso   1.000  H
  N32      1.0000 0.87020  0.69242  0.15178  Biso   1.000  N
  H203     1.0000 0.84699  0.58701  0.05196  Biso   1.000  H
  H204     1.0000 0.79497  0.66998  0.00197  Biso   1.000  H
  C83      1.0000 0.91630  0.91838  0.37128  Biso   1.000  C
  H205     1.0000 0.86302  0.85003  0.46699  Biso   1.000  H
  H206     1.0000 0.95298  0.83797  0.50500  Biso   1.000  H
  C84      1.0000 0.81498  0.68441  0.21548  Biso   1.000  C
  H207     1.0000 0.78902  0.74199  0.34599  Biso   1.000  H
  H208     1.0000 0.81301  0.81002  0.26497  Biso   1.000  H
  H209     1.0000 0.02299  0.88298  0.38203  Biso   1.000  H
  H210     1.0000 0.96698  0.87497  0.25800  Biso   1.000  H
  H211     1.0000 0.91802  0.66498  0.19504  Biso   1.000  H
  H212     1.0000 0.87901  0.75500  0.14102  Biso   1.000  H
  H213     1.0000 0.92200  0.97102  0.41798  Biso   1.000  H
  H214     1.0000 0.87001  0.92299  0.30897  Biso   1.000  H
  H215     1.0000 0.76400  0.68902  0.16401  Biso   1.000  H
  H216     1.0000 0.82102  0.62702  0.25201  Biso   1.000  H
