data_image0
_cell_length_a       17.824
_cell_length_b       15.373
_cell_length_c       15.38
_cell_angle_alpha    103.27
_cell_angle_beta     113.38
_cell_angle_gamma    99.02

_symmetry_space_group_name_H-M    "P 1"
_symmetry_int_tables_number       1

loop_
  _symmetry_equiv_pos_as_xyz
  'x, y, z'

loop_
  _atom_site_label
  _atom_site_occupancy
  _atom_site_fract_x
  _atom_site_fract_y
  _atom_site_fract_z
  _atom_site_thermal_displace_type
  _atom_site_B_iso_or_equiv
  _atom_site_type_symbol
  C1       1.0000 0.35027  0.64541  0.21001  Biso   1.000  C
  C2       1.0000 0.32237  0.60559  0.09853  Biso   1.000  C
  H1       1.0000 0.36264  0.59695  0.24330  Biso   1.000  H
  C3       1.0000 0.27832  0.67895  0.22108  Biso   1.000  C
  O1       1.0000 0.42365  0.72437  0.25400  Biso   1.000  O
  C4       1.0000 0.23865  0.52766  0.04586  Biso   1.000  C
  H2       1.0000 0.31467  0.65648  0.06808  Biso   1.000  H
  O2       1.0000 0.38396  0.56557  0.07923  Biso   1.000  O
  C5       1.0000 0.19839  0.59758  0.17103  Biso   1.000  C
  H3       1.0000 0.26787  0.72840  0.18891  Biso   1.000  H
  O3       1.0000 0.30447  0.71788  0.32829  Biso   1.000  O
  H4       1.0000 0.43007  0.74121  0.20859  Biso   1.000  H
  O4       1.0000 0.25448  0.45201  0.08559  Biso   1.000  O
  O5       1.0000 0.17427  0.56058  0.06718  Biso   1.000  O
  H5       1.0000 0.21950  0.50604  0.97209  Biso   1.000  H
  H6       1.0000 0.41654  0.60500  0.07100  Biso   1.000  H
  H7       1.0000 0.20864  0.54806  0.20298  Biso   1.000  H
  C6       1.0000 0.12226  0.62798  0.17642  Biso   1.000  C
  C7       1.0000 0.30013  0.80988  0.36368  Biso   1.000  C
  C8       1.0000 0.23206  0.36282  0.01160  Biso   1.000  C
  H8       1.0000 0.07116  0.57388  0.14110  Biso   1.000  H
  H9       1.0000 0.13355  0.65126  0.24719  Biso   1.000  H
  O6       1.0000 0.10707  0.69772  0.13302  Biso   1.000  O
  H10      1.0000 0.29465  0.84060  0.31161  Biso   1.000  H
  C9       1.0000 0.38450  0.86175  0.45735  Biso   1.000  C
  O7       1.0000 0.23052  0.81236  0.38650  Biso   1.000  O
  C10      1.0000 0.30757  0.32159  0.05342  Biso   1.000  C
  C11      1.0000 0.15093  0.29963  0.99918  Biso   1.000  C
  H11      1.0000 0.22443  0.37072  0.94621  Biso   1.000  H
  H12      1.0000 0.08426  0.73138  0.16011  Biso   1.000  H
  H13      1.0000 0.38331  0.92683  0.48488  Biso   1.000  H
  C12      1.0000 0.39281  0.81324  0.53471  Biso   1.000  C
  O8       1.0000 0.45340  0.86485  0.43027  Biso   1.000  O
  C13      1.0000 0.23255  0.76967  0.46416  Biso   1.000  C
  C14      1.0000 0.28332  0.22607  0.98182  Biso   1.000  C
  H14      1.0000 0.31736  0.31797  0.12098  Biso   1.000  H
  O9       1.0000 0.38284  0.37796  0.05978  Biso   1.000  O
  O10      1.0000 0.13405  0.20524  0.93753  Biso   1.000  O
  H15      1.0000 0.15539  0.30019  0.06621  Biso   1.000  H
  C15      1.0000 0.07129  0.32770  0.94067  Biso   1.000  C
  H16      1.0000 0.39634  0.74879  0.50950  Biso   1.000  H
  C16      1.0000 0.31734  0.80998  0.55528  Biso   1.000  C
  O11      1.0000 0.46770  0.86485  0.62816  Biso   1.000  O
  H17      1.0000 0.43875  0.82028  0.37820  Biso   1.000  H
  H18      1.0000 0.22314  0.70119  0.43670  Biso   1.000  H
  C17      1.0000 0.15876  0.78618  0.48301  Biso   1.000  C
  C18      1.0000 0.20005  0.16651  0.97449  Biso   1.000  C
  O12      1.0000 0.35139  0.18053  0.01032  Biso   1.000  O
  H19      1.0000 0.27117  0.23156  0.91434  Biso   1.000  H
  H20      1.0000 0.38395  0.43438  0.07728  Biso   1.000  H
  H21      1.0000 0.01985  0.28004  0.92623  Biso   1.000  H
  H22      1.0000 0.07179  0.38753  0.98257  Biso   1.000  H
  O13      1.0000 0.06745  0.33715  0.85052  Biso   1.000  O
  H23      1.0000 0.32082  0.87407  0.59292  Biso   1.000  H
  O14      1.0000 0.32259  0.75094  0.61835  Biso   1.000  O
  H24      1.0000 0.51111  0.85385  0.62397  Biso   1.000  H
  H25      1.0000 0.10585  0.76120  0.41912  Biso   1.000  H
  H26      1.0000 0.15232  0.75288  0.52865  Biso   1.000  H
  O15      1.0000 0.17130  0.88398  0.52656  Biso   1.000  O
  O16      1.0000 0.22210  0.16692  0.07512  Biso   1.000  O
  H27      1.0000 0.18515  0.10144  0.92982  Biso   1.000  H
  H28      1.0000 0.39695  0.21997  0.05409  Biso   1.000  H
  H29      1.0000 0.11666  0.34793  0.85463  Biso   1.000  H
  C19      1.0000 0.31744  0.78894  0.70971  Biso   1.000  C
  H30      1.0000 0.13562  0.90258  0.48548  Biso   1.000  H
  C20      1.0000 0.20771  0.07681  0.08963  Biso   1.000  C
  H31      1.0000 0.31712  0.85553  0.72115  Biso   1.000  H
  C21      1.0000 0.39318  0.77894  0.79380  Biso   1.000  C
  O17      1.0000 0.23972  0.73204  0.70200  Biso   1.000  O
  C22      1.0000 0.29237  0.08128  0.17896  Biso   1.000  C
  H32      1.0000 0.19317  0.02482  0.02791  Biso   1.000  H
  C23      1.0000 0.13719  0.06809  0.12210  Biso   1.000  C
  C24      1.0000 0.39311  0.68086  0.78168  Biso   1.000  C
  H33      1.0000 0.38980  0.80493  0.85754  Biso   1.000  H
  O18      1.0000 0.46941  0.83207  0.80210  Biso   1.000  O
  C25      1.0000 0.23574  0.63445  0.68778  Biso   1.000  C
  H34      1.0000 0.30975  0.13791  0.23769  Biso   1.000  H
  O19      1.0000 0.35566  0.08289  0.14230  Biso   1.000  O
  C26      1.0000 0.27721  0.99289  0.20582  Biso   1.000  C
  H35      1.0000 0.14938  0.12649  0.17642  Biso   1.000  H
  C27      1.0000 0.05208  0.05268  0.03561  Biso   1.000  C
  O20      1.0000 0.12872  0.98950  0.15771  Biso   1.000  O
  C28      1.0000 0.31098  0.62401  0.77285  Biso   1.000  C
  H36      1.0000 0.39861  0.65411  0.71936  Biso   1.000  H
  O21      1.0000 0.46183  0.67164  0.86510  Biso   1.000  O
  H37      1.0000 0.46461  0.82842  0.74479  Biso   1.000  H
  H38      1.0000 0.23622  0.60558  0.62277  Biso   1.000  H
  C29      1.0000 0.15130  0.58991  0.68374  Biso   1.000  C
  H39      1.0000 0.40238  0.08507  0.18809  Biso   1.000  H
  C30      1.0000 0.20581  0.99047  0.23911  Biso   1.000  C
  H40      1.0000 0.25855  0.93781  0.14522  Biso   1.000  H
  O22      1.0000 0.35252  0.98906  0.28325  Biso   1.000  O
  H41      1.0000 0.05390  0.10371  0.00651  Biso   1.000  H
  O23      1.0000 0.98840  0.05010  0.07167  Biso   1.000  O
  H42      1.0000 0.03767  0.99314  0.98279  Biso   1.000  H
  O24      1.0000 0.31130  0.52925  0.75617  Biso   1.000  O
  H43      1.0000 0.30708  0.64794  0.83674  Biso   1.000  H
  H44      1.0000 0.49378  0.64762  0.84535  Biso   1.000  H
  H45      1.0000 0.14600  0.52344  0.67731  Biso   1.000  H
  H46      1.0000 0.14990  0.62086  0.74689  Biso   1.000  H
  O25      1.0000 0.08112  0.59819  0.60070  Biso   1.000  O
  O26      1.0000 0.23185  0.07305  0.32268  Biso   1.000  O
  H47      1.0000 0.19622  0.93390  0.25916  Biso   1.000  H
  H48      1.0000 0.34181  0.97731  0.32852  Biso   1.000  H
  H49      1.0000 0.95010  0.07149  0.03838  Biso   1.000  H
  C31      1.0000 0.30095  0.48515  0.82560  Biso   1.000  C
  H50      1.0000 0.03681  0.55713  0.58566  Biso   1.000  H
  C32      1.0000 0.23423  0.05896  0.41515  Biso   1.000  C
  C33      1.0000 0.37369  0.43945  0.85799  Biso   1.000  C
  O27      1.0000 0.22141  0.41777  0.77936  Biso   1.000  O
  H51      1.0000 0.30548  0.53300  0.88515  Biso   1.000  H
  C34      1.0000 0.32213  0.11627  0.49685  Biso   1.000  C
  C35      1.0000 0.16473  0.09666  0.43506  Biso   1.000  C
  H52      1.0000 0.22533  0.99166  0.40969  Biso   1.000  H
  C36      1.0000 0.36665  0.36967  0.76896  Biso   1.000  C
  H53      1.0000 0.36520  0.40505  0.90281  Biso   1.000  H
  O28      1.0000 0.45369  0.50723  0.91478  Biso   1.000  O
  C37      1.0000 0.20715  0.34438  0.69018  Biso   1.000  C
  C38      1.0000 0.32286  0.10478  0.59381  Biso   1.000  C
  H54      1.0000 0.33096  0.18315  0.50067  Biso   1.000  H
  O29      1.0000 0.38466  0.08085  0.47620  Biso   1.000  O
  H55      1.0000 0.17047  0.16217  0.43431  Biso   1.000  H
  C39      1.0000 0.07728  0.03500  0.36016  Biso   1.000  C
  O30      1.0000 0.17459  0.09114  0.53172  Biso   1.000  O
  C40      1.0000 0.28000  0.29813  0.71786  Biso   1.000  C
  H56      1.0000 0.37380  0.40097  0.72145  Biso   1.000  H
  O31      1.0000 0.43334  0.32398  0.80270  Biso   1.000  O
  H57      1.0000 0.45319  0.55226  0.89226  Biso   1.000  H
  H58      1.0000 0.20513  0.37143  0.63639  Biso   1.000  H
  C41      1.0000 0.12251  0.27893  0.65808  Biso   1.000  C
  C42      1.0000 0.25397  0.14006  0.61200  Biso   1.000  C
  H59      1.0000 0.31246  0.03737  0.58775  Biso   1.000  H
  O32      1.0000 0.40462  0.15476  0.67454  Biso   1.000  O
  H60      1.0000 0.43266  0.10623  0.52558  Biso   1.000  H
  H61      1.0000 0.03387  0.06277  0.37086  Biso   1.000  H
  H62      1.0000 0.06936  0.03025  0.29171  Biso   1.000  H
  O33      1.0000 0.06552  0.94269  0.36997  Biso   1.000  O
  O34      1.0000 0.27304  0.23734  0.62651  Biso   1.000  O
  H63      1.0000 0.27565  0.26146  0.76238  Biso   1.000  H
  H64      1.0000 0.41972  0.27181  0.75976  Biso   1.000  H
  H65      1.0000 0.07965  0.31439  0.64851  Biso   1.000  H
  H66      1.0000 0.10584  0.23238  0.59254  Biso   1.000  H
  O35      1.0000 0.12083  0.23216  0.72587  Biso   1.000  O
  H67      1.0000 0.25475  0.12988  0.67417  Biso   1.000  H
  H68      1.0000 0.39922  0.19433  0.71786  Biso   1.000  H
  H69      1.0000 0.02568  0.93165  0.38545  Biso   1.000  H
  H70      1.0000 0.09296  0.25327  0.75459  Biso   1.000  H
  C43      1.0000 0.64854  0.71371  0.35021  Biso   1.000  C
  C44      1.0000 0.72316  0.68506  0.33548  Biso   1.000  C
  C45      1.0000 0.67744  0.81819  0.39959  Biso   1.000  C
  H71      1.0000 0.63542  0.68264  0.39495  Biso   1.000  H
  O36      1.0000 0.57442  0.68748  0.25617  Biso   1.000  O
  O37      1.0000 0.69456  0.58468  0.28946  Biso   1.000  O
  H72      1.0000 0.73805  0.71618  0.29178  Biso   1.000  H
  C46      1.0000 0.79731  0.71124  0.43618  Biso   1.000  C
  C47      1.0000 0.75995  0.84857  0.49648  Biso   1.000  C
  H73      1.0000 0.68813  0.84769  0.35246  Biso   1.000  H
  O38      1.0000 0.61484  0.85113  0.41987  Biso   1.000  O
  H74      1.0000 0.56516  0.73538  0.24151  Biso   1.000  H
  C48      1.0000 0.69389  0.55061  0.19609  Biso   1.000  C
  H75      1.0000 0.78123  0.68076  0.47957  Biso   1.000  H
  C49      1.0000 0.87822  0.68746  0.43199  Biso   1.000  C
  O39      1.0000 0.82364  0.81184  0.48137  Biso   1.000  O
  H76      1.0000 0.78063  0.91805  0.52289  Biso   1.000  H
  O40      1.0000 0.73992  0.81365  0.56778  Biso   1.000  O
  H77      1.0000 0.63731  0.90414  0.46341  Biso   1.000  H
  C50      1.0000 0.60946  0.47642  0.12532  Biso   1.000  C
  O41      1.0000 0.76354  0.51049  0.20530  Biso   1.000  O
  H78      1.0000 0.69868  0.60279  0.16819  Biso   1.000  H
  H79      1.0000 0.92699  0.71315  0.49955  Biso   1.000  H
  H80      1.0000 0.86805  0.61914  0.40879  Biso   1.000  H
  O42      1.0000 0.89692  0.72707  0.36428  Biso   1.000  O
  C51      1.0000 0.76182  0.88198  0.66227  Biso   1.000  C
  C52      1.0000 0.60156  0.40178  0.17170  Biso   1.000  C
  H81      1.0000 0.60778  0.44960  0.05858  Biso   1.000  H
  O43      1.0000 0.54167  0.52108  0.11499  Biso   1.000  O
  C53      1.0000 0.75984  0.43747  0.24742  Biso   1.000  C
  H82      1.0000 0.86195  0.75676  0.34221  Biso   1.000  H
  C54      1.0000 0.68500  0.85975  0.68068  Biso   1.000  C
  H83      1.0000 0.77170  0.94583  0.65688  Biso   1.000  H
  C55      1.0000 0.84051  0.87388  0.74240  Biso   1.000  C
  C56      1.0000 0.67596  0.36182  0.18652  Biso   1.000  C
  H84      1.0000 0.60014  0.42747  0.23687  Biso   1.000  H
  O44      1.0000 0.52528  0.32550  0.10257  Biso   1.000  O
  H85      1.0000 0.50195  0.48627  0.11776  Biso   1.000  H
  H86      1.0000 0.76757  0.46385  0.31707  Biso   1.000  H
  C57      1.0000 0.83697  0.39820  0.25108  Biso   1.000  C
  C58      1.0000 0.70258  0.91842  0.78011  Biso   1.000  C
  H87      1.0000 0.67118  0.79295  0.67686  Biso   1.000  H
  O45      1.0000 0.61174  0.87617  0.60721  Biso   1.000  O
  H88      1.0000 0.83440  0.80691  0.73806  Biso   1.000  H
  C59      1.0000 0.92036  0.91217  0.73454  Biso   1.000  C
  O46      1.0000 0.85367  0.92696  0.83966  Biso   1.000  O
  O47      1.0000 0.67005  0.29875  0.24166  Biso   1.000  O
  H89      1.0000 0.67165  0.32727  0.12038  Biso   1.000  H
  H90      1.0000 0.50980  0.29576  0.13482  Biso   1.000  H
  H91      1.0000 0.89027  0.44947  0.28640  Biso   1.000  H
  H92      1.0000 0.84258  0.35279  0.28819  Biso   1.000  H
  O48      1.0000 0.82268  0.35319  0.14978  Biso   1.000  O
  C60      1.0000 0.78248  0.90333  0.85754  Biso   1.000  C
  H93      1.0000 0.71458  0.98512  0.78310  Biso   1.000  H
  O49      1.0000 0.63226  0.89666  0.80225  Biso   1.000  O
  H94      1.0000 0.60852  0.85502  0.54997  Biso   1.000  H
  H95      1.0000 0.97071  0.91154  0.79320  Biso   1.000  H
  H96      1.0000 0.91929  0.87133  0.67379  Biso   1.000  H
  O50      1.0000 0.92864  0.00391  0.73035  Biso   1.000  O
  C61      1.0000 0.68251  0.20858  0.20732  Biso   1.000  C
  H97      1.0000 0.86420  0.37677  0.14163  Biso   1.000  H
  O51      1.0000 0.75988  0.80676  0.84737  Biso   1.000  O
  H98      1.0000 0.79549  0.94184  0.92637  Biso   1.000  H
  H99      1.0000 0.63537  0.94241  0.84684  Biso   1.000  H
  H100     1.0000 0.94674  0.04146  0.78804  Biso   1.000  H
  C62      1.0000 0.60479  0.13622  0.19243  Biso   1.000  C
  H101     1.0000 0.68629  0.20011  0.14290  Biso   1.000  H
  O52      1.0000 0.75883  0.20145  0.28295  Biso   1.000  O
  C63      1.0000 0.77048  0.78154  0.93565  Biso   1.000  C
  C64      1.0000 0.60057  0.14800  0.28901  Biso   1.000  C
  H102     1.0000 0.61167  0.07288  0.16938  Biso   1.000  H
  O53      1.0000 0.52976  0.14335  0.11567  Biso   1.000  O
  C65      1.0000 0.75735  0.21415  0.37977  Biso   1.000  C
  C66      1.0000 0.68766  0.71320  0.91066  Biso   1.000  C
  C67      1.0000 0.84382  0.73684  0.96169  Biso   1.000  C
  H103     1.0000 0.78378  0.83811  0.99243  Biso   1.000  H
  O54      1.0000 0.52888  0.07405  0.27300  Biso   1.000  O
  H104     1.0000 0.59169  0.21009  0.31228  Biso   1.000  H
  C68      1.0000 0.68477  0.14165  0.36750  Biso   1.000  C
  H105     1.0000 0.52578  0.19787  0.13100  Biso   1.000  H
  H106     1.0000 0.74896  0.27668  0.40251  Biso   1.000  H
  C69      1.0000 0.84477  0.21337  0.45286  Biso   1.000  C
  C70      1.0000 0.70165  0.67912  0.00037  Biso   1.000  C
  H107     1.0000 0.67268  0.65926  0.85036  Biso   1.000  H
  O55      1.0000 0.62029  0.75735  0.89113  Biso   1.000  O
  O56      1.0000 0.85043  0.69790  0.03979  Biso   1.000  O
  H108     1.0000 0.83297  0.68590  0.90064  Biso   1.000  H
  C71      1.0000 0.92859  0.80663  0.99685  Biso   1.000  C
  H109     1.0000 0.53338  0.07091  0.32852  Biso   1.000  H
  H110     1.0000 0.69247  0.07865  0.34558  Biso   1.000  H
  O57      1.0000 0.67869  0.15596  0.46042  Biso   1.000  O
  H111     1.0000 0.84437  0.21279  0.51698  Biso   1.000  H
  H112     1.0000 0.85776  0.15597  0.42548  Biso   1.000  H
  O58      1.0000 0.90997  0.29328  0.47097  Biso   1.000  O
  C72      1.0000 0.77302  0.63469  0.02004  Biso   1.000  C
  O59      1.0000 0.62499  0.61904  0.98667  Biso   1.000  O
  H113     1.0000 0.71976  0.73486  0.06007  Biso   1.000  H
  H114     1.0000 0.63305  0.80302  0.94163  Biso   1.000  H
  H115     1.0000 0.92761  0.83331  0.94380  Biso   1.000  H
  H116     1.0000 0.97505  0.77608  0.01338  Biso   1.000  H
  O60      1.0000 0.94246  0.87978  0.08566  Biso   1.000  O
  C73      1.0000 0.68385  0.08283  0.50306  Biso   1.000  C
  H117     1.0000 0.91704  0.33638  0.52079  Biso   1.000  H
  O61      1.0000 0.74941  0.55465  0.93438  Biso   1.000  O
  H118     1.0000 0.78254  0.61361  0.07945  Biso   1.000  H
  H119     1.0000 0.61647  0.56560  0.94897  Biso   1.000  H
  H120     1.0000 0.95546  0.93201  0.07907  Biso   1.000  H
  H121     1.0000 0.67857  0.02545  0.45196  Biso   1.000  H
  C74      1.0000 0.61106  0.06466  0.52641  Biso   1.000  C
  O62      1.0000 0.76283  0.10447  0.58835  Biso   1.000  O
  C75      1.0000 0.75130  0.46676  0.95166  Biso   1.000  C
  H122     1.0000 0.61383  0.01326  0.55626  Biso   1.000  H
  C76      1.0000 0.61793  0.15373  0.60287  Biso   1.000  C
  O63      1.0000 0.53279  0.03906  0.43932  Biso   1.000  O
  C77      1.0000 0.77755  0.19007  0.66751  Biso   1.000  C
  C78      1.0000 0.66202  0.39911  0.87527  Biso   1.000  C
  C79      1.0000 0.81869  0.43330  0.92966  Biso   1.000  C
  H123     1.0000 0.76195  0.47241  0.02184  Biso   1.000  H
  H124     1.0000 0.61353  0.20568  0.57376  Biso   1.000  H
  C80      1.0000 0.70383  0.17817  0.69399  Biso   1.000  C
  O64      1.0000 0.54804  0.13115  0.62756  Biso   1.000  O
  H125     1.0000 0.51168  0.08415  0.43902  Biso   1.000  H
  H126     1.0000 0.78064  0.24448  0.64245  Biso   1.000  H
  C81      1.0000 0.86106  0.20286  0.75430  Biso   1.000  C
  C82      1.0000 0.66483  0.30506  0.88605  Biso   1.000  C
  H127     1.0000 0.65001  0.39761  0.80554  Biso   1.000  H
  O65      1.0000 0.60130  0.43312  0.90176  Biso   1.000  O
  O66      1.0000 0.81329  0.33763  0.92974  Biso   1.000  O
  H128     1.0000 0.81059  0.43625  0.86225  Biso   1.000  H
  C83      1.0000 0.90868  0.48872  0.00658  Biso   1.000  C
  H129     1.0000 0.70504  0.12911  0.72706  Biso   1.000  H
  O67      1.0000 0.71325  0.26646  0.76170  Biso   1.000  O
  H130     1.0000 0.56534  0.15456  0.68950  Biso   1.000  H
  H131     1.0000 0.90525  0.20222  0.73058  Biso   1.000  H
  H132     1.0000 0.87722  0.26465  0.80427  Biso   1.000  H
  O68      1.0000 0.86020  0.13453  0.80106  Biso   1.000  O
  C84      1.0000 0.73223  0.27353  0.86300  Biso   1.000  C
  H133     1.0000 0.67741  0.30816  0.95630  Biso   1.000  H
  O69      1.0000 0.58383  0.23733  0.81796  Biso   1.000  O
  H134     1.0000 0.55192  0.40176  0.85859  Biso   1.000  H
  H135     1.0000 0.94978  0.46684  0.98518  Biso   1.000  H
  H136     1.0000 0.91657  0.55541  0.01264  Biso   1.000  H
  O70      1.0000 0.92363  0.47677  0.10264  Biso   1.000  O
  H137     1.0000 0.87824  0.09232  0.77734  Biso   1.000  H
  H138     1.0000 0.73273  0.21094  0.87131  Biso   1.000  H
  H139     1.0000 0.56704  0.20785  0.84954  Biso   1.000  H
  H140     1.0000 0.88556  0.49018  0.11775  Biso   1.000  H
  Ne1      1.0000 0.26236  0.41678  0.39705  Biso   1.000  Ne
  He1      1.0000 0.27223  0.41431  0.41582  Biso   1.000  He
  He2      1.0000 0.18437  0.40204  0.37733  Biso   1.000  He
  Ar1      1.0000 0.27223  0.41433  0.41582  Biso   1.000  Ar
  Ne2      1.0000 0.72662  0.50190  0.59203  Biso   1.000  Ne
  He3      1.0000 0.91630  0.57497  0.70124  Biso   1.000  He
  He4      1.0000 0.67432  0.48092  0.57431  Biso   1.000  He
  Ar2      1.0000 0.69645  0.48008  0.58714  Biso   1.000  Ar
