data_image0
_cell_length_a       11.311
_cell_length_b       21.467
_cell_length_c       21.439
_cell_angle_alpha    90
_cell_angle_beta     103.77
_cell_angle_gamma    90

_symmetry_space_group_name_H-M    "P 1"
_symmetry_int_tables_number       1

loop_
  _symmetry_equiv_pos_as_xyz
  'x, y, z'

loop_
  _atom_site_label
  _atom_site_occupancy
  _atom_site_fract_x
  _atom_site_fract_y
  _atom_site_fract_z
  _atom_site_thermal_displace_type
  _atom_site_B_iso_or_equiv
  _atom_site_type_symbol
  C1       1.0000 0.63307  0.37681  0.52923  Biso   1.000  C
  C2       1.0000 0.69888  0.31933  0.56241  Biso   1.000  C
  H1       1.0000 0.54605  0.36931  0.51938  Biso   1.000  H
  H2       1.0000 0.65022  0.41179  0.55862  Biso   1.000  H
  C3       1.0000 0.67001  0.39395  0.46728  Biso   1.000  C
  C4       1.0000 0.69137  0.31322  0.63200  Biso   1.000  C
  H3       1.0000 0.78381  0.32128  0.56078  Biso   1.000  H
  H4       1.0000 0.66384  0.28248  0.53902  Biso   1.000  H
  H5       1.0000 0.62613  0.43038  0.44879  Biso   1.000  H
  H6       1.0000 0.75577  0.40229  0.47669  Biso   1.000  H
  H7       1.0000 0.65132  0.35999  0.43740  Biso   1.000  H
  O1       1.0000 0.56648  0.31798  0.63363  Biso   1.000  O
  H8       1.0000 0.73824  0.34611  0.65769  Biso   1.000  H
  H9       1.0000 0.72419  0.27340  0.64929  Biso   1.000  H
  C5       1.0000 0.53738  0.31923  0.69280  Biso   1.000  C
  C6       1.0000 0.41263  0.32110  0.69083  Biso   1.000  C
  C7       1.0000 0.62296  0.32003  0.75139  Biso   1.000  C
  C8       1.0000 0.31864  0.32254  0.62691  Biso   1.000  C
  C9       1.0000 0.37699  0.32003  0.74860  Biso   1.000  C
  C10      1.0000 0.58741  0.32110  0.80916  Biso   1.000  C
  H10      1.0000 0.70538  0.31989  0.75201  Biso   1.000  H
  C11      1.0000 0.28516  0.25719  0.60227  Biso   1.000  C
  H11      1.0000 0.35106  0.34541  0.59569  Biso   1.000  H
  H12      1.0000 0.24614  0.34402  0.63219  Biso   1.000  H
  C12      1.0000 0.46259  0.31923  0.80724  Biso   1.000  C
  H13      1.0000 0.29458  0.31989  0.74798  Biso   1.000  H
  C13      1.0000 0.68140  0.32254  0.87308  Biso   1.000  C
  C14      1.0000 0.35229  0.22672  0.56452  Biso   1.000  C
  C15      1.0000 0.18838  0.22514  0.61822  Biso   1.000  C
  O2       1.0000 0.43350  0.31798  0.86641  Biso   1.000  O
  C16      1.0000 0.71480  0.25719  0.89772  Biso   1.000  C
  H14      1.0000 0.64889  0.34541  0.90430  Biso   1.000  H
  H15      1.0000 0.75390  0.34402  0.86780  Biso   1.000  H
  C17      1.0000 0.32543  0.16570  0.54397  Biso   1.000  C
  H16      1.0000 0.41592  0.24750  0.55290  Biso   1.000  H
  C18      1.0000 0.16125  0.16411  0.59709  Biso   1.000  C
  O3       1.0000 0.12529  0.25756  0.65591  Biso   1.000  O
  C19      1.0000 0.30858  0.31322  0.86799  Biso   1.000  C
  C20      1.0000 0.81157  0.22514  0.88177  Biso   1.000  C
  C21      1.0000 0.64766  0.22672  0.93546  Biso   1.000  C
  O4       1.0000 0.38889  0.13304  0.50670  Biso   1.000  O
  C22      1.0000 0.23002  0.13351  0.56039  Biso   1.000  C
  H17      1.0000 0.09637  0.14352  0.60770  Biso   1.000  H
  C23      1.0000 0.01043  0.23306  0.66038  Biso   1.000  C
  H18      1.0000 0.26180  0.34611  0.84230  Biso   1.000  H
  H19      1.0000 0.27576  0.27340  0.85070  Biso   1.000  H
  C24      1.0000 0.30108  0.31933  0.93758  Biso   1.000  C
  O5       1.0000 0.87466  0.25756  0.84407  Biso   1.000  O
  C25      1.0000 0.83870  0.16411  0.90290  Biso   1.000  C
  H20      1.0000 0.58412  0.24750  0.94709  Biso   1.000  H
  C26      1.0000 0.67464  0.16570  0.95607  Biso   1.000  C
  C27      1.0000 0.49169  0.16248  0.49196  Biso   1.000  C
  C28      1.0000 0.20781  0.06522  0.54272  Biso   1.000  C
  H21      1.0000 0.02138  0.19178  0.67820  Biso   1.000  H
  H22      1.0000 0.97590  0.25928  0.68771  Biso   1.000  H
  H23      1.0000 0.95675  0.23152  0.61841  Biso   1.000  H
  H24      1.0000 0.21623  0.32128  0.93921  Biso   1.000  H
  H25      1.0000 0.33623  0.28248  0.96101  Biso   1.000  H
  C29      1.0000 0.36690  0.37681  0.97081  Biso   1.000  C
  C30      1.0000 0.98961  0.23306  0.83961  Biso   1.000  C
  C31      1.0000 0.77003  0.13351  0.93959  Biso   1.000  C
  H26      1.0000 0.90358  0.14352  0.89229  Biso   1.000  H
  O6       1.0000 0.61109  0.13304  0.99333  Biso   1.000  O
  H27      1.0000 0.52709  0.13509  0.46598  Biso   1.000  H
  H28      1.0000 0.46652  0.20040  0.46891  Biso   1.000  H
  H29      1.0000 0.55072  0.17171  0.53110  Biso   1.000  H
  C32      1.0000 0.28265  0.02455  0.59555  Biso   1.000  C
  H30      1.0000 0.23030  0.05678  0.50262  Biso   1.000  H
  H31      1.0000 0.12199  0.05562  0.53691  Biso   1.000  H
  H32      1.0000 0.45390  0.36931  0.98061  Biso   1.000  H
  H33      1.0000 0.34984  0.41179  0.94142  Biso   1.000  H
  C33      1.0000 0.33005  0.39395  0.03276  Biso   1.000  C
  H34      1.0000 0.97857  0.19178  0.82179  Biso   1.000  H
  H35      1.0000 0.02406  0.25928  0.81228  Biso   1.000  H
  H36      1.0000 0.04330  0.23152  0.88158  Biso   1.000  H
  C34      1.0000 0.79223  0.06522  0.95727  Biso   1.000  C
  C35      1.0000 0.50827  0.16248  0.00803  Biso   1.000  C
  C36      1.0000 0.23285  0.00256  0.64506  Biso   1.000  C
  C37      1.0000 0.40361  0.00988  0.59713  Biso   1.000  C
  H37      1.0000 0.37391  0.43038  0.05120  Biso   1.000  H
  H38      1.0000 0.24418  0.40229  0.02330  Biso   1.000  H
  H39      1.0000 0.34872  0.35999  0.06258  Biso   1.000  H
  C38      1.0000 0.71730  0.02455  0.90444  Biso   1.000  C
  H40      1.0000 0.76968  0.05678  0.99742  Biso   1.000  H
  H41      1.0000 0.87796  0.05562  0.96308  Biso   1.000  H
  H42      1.0000 0.44932  0.17171  0.96889  Biso   1.000  H
  H43      1.0000 0.47286  0.13509  0.03401  Biso   1.000  H
  H44      1.0000 0.53352  0.20040  0.03108  Biso   1.000  H
  O7       1.0000 0.11309  0.01896  0.64084  Biso   1.000  O
  C39      1.0000 0.30220  0.96641  0.69453  Biso   1.000  C
  H45      1.0000 0.43798  0.02399  0.56438  Biso   1.000  H
  C40      1.0000 0.47353  0.97447  0.64669  Biso   1.000  C
  C41      1.0000 0.76710  0.00256  0.85493  Biso   1.000  C
  C42      1.0000 0.59644  0.00988  0.90286  Biso   1.000  C
  C43      1.0000 0.05034  0.98705  0.68007  Biso   1.000  C
  C44      1.0000 0.42351  0.95183  0.69611  Biso   1.000  C
  H46      1.0000 0.26738  0.95179  0.72689  Biso   1.000  H
  O8       1.0000 0.59417  0.95919  0.65130  Biso   1.000  O
  C45      1.0000 0.69775  0.96641  0.80546  Biso   1.000  C
  O9       1.0000 0.88695  0.01896  0.85915  Biso   1.000  O
  C46      1.0000 0.52651  0.97447  0.85329  Biso   1.000  C
  H47      1.0000 0.56197  0.02399  0.93561  Biso   1.000  H
  H48      1.0000 0.96859  0.00270  0.67248  Biso   1.000  H
  H49      1.0000 0.04835  0.94340  0.67018  Biso   1.000  H
  H50      1.0000 0.09098  0.99329  0.72430  Biso   1.000  H
  C47      1.0000 0.49998  0.91284  0.74999  Biso   1.000  C
  C48      1.0000 0.65187  0.98668  0.60597  Biso   1.000  C
  C49      1.0000 0.57654  0.95183  0.80388  Biso   1.000  C
  H51      1.0000 0.73257  0.95179  0.77309  Biso   1.000  H
  C50      1.0000 0.94972  0.98705  0.81997  Biso   1.000  C
  O10      1.0000 0.40587  0.95919  0.84868  Biso   1.000  O
  H52      1.0000 0.45121  0.88559  0.76829  Biso   1.000  H
  H53      1.0000 0.54883  0.88559  0.73170  Biso   1.000  H
  H54      1.0000 0.65028  0.03121  0.60991  Biso   1.000  H
  H55      1.0000 0.73466  0.97270  0.61409  Biso   1.000  H
  H56      1.0000 0.60951  0.97471  0.56342  Biso   1.000  H
  H57      1.0000 0.95160  0.94340  0.82981  Biso   1.000  H
  H58      1.0000 0.90897  0.99329  0.77569  Biso   1.000  H
  H59      1.0000 0.03137  0.00270  0.82751  Biso   1.000  H
  C51      1.0000 0.34809  0.98668  0.89402  Biso   1.000  C
  H60      1.0000 0.34967  0.03121  0.89008  Biso   1.000  H
  H61      1.0000 0.26530  0.97270  0.88590  Biso   1.000  H
  H62      1.0000 0.39047  0.97471  0.93662  Biso   1.000  H
  C52      1.0000 0.36694  0.62319  0.47078  Biso   1.000  C
  C53      1.0000 0.30113  0.68067  0.43760  Biso   1.000  C
  H63      1.0000 0.45393  0.63069  0.48058  Biso   1.000  H
  H64      1.0000 0.34979  0.58821  0.44139  Biso   1.000  H
  C54      1.0000 0.32999  0.60605  0.53273  Biso   1.000  C
  C55      1.0000 0.30863  0.68678  0.36801  Biso   1.000  C
  H65      1.0000 0.21617  0.67872  0.43918  Biso   1.000  H
  H66      1.0000 0.33617  0.71752  0.46098  Biso   1.000  H
  H67      1.0000 0.37387  0.56962  0.55122  Biso   1.000  H
  H68      1.0000 0.24423  0.59771  0.52332  Biso   1.000  H
  H69      1.0000 0.34869  0.64001  0.56260  Biso   1.000  H
  O11      1.0000 0.43353  0.68202  0.36638  Biso   1.000  O
  H70      1.0000 0.26177  0.65389  0.34232  Biso   1.000  H
  H71      1.0000 0.27581  0.72660  0.35072  Biso   1.000  H
  C56      1.0000 0.46262  0.68077  0.30721  Biso   1.000  C
  C57      1.0000 0.37702  0.67997  0.24857  Biso   1.000  C
  C58      1.0000 0.58737  0.67890  0.30918  Biso   1.000  C
  H72      1.0000 0.29463  0.68011  0.24800  Biso   1.000  H
  C59      1.0000 0.41260  0.67890  0.19085  Biso   1.000  C
  C60      1.0000 0.68137  0.67746  0.37310  Biso   1.000  C
  C61      1.0000 0.62302  0.67997  0.25141  Biso   1.000  C
  C62      1.0000 0.31858  0.67746  0.12688  Biso   1.000  C
  C63      1.0000 0.53742  0.68077  0.19277  Biso   1.000  C
  C64      1.0000 0.71483  0.74281  0.39769  Biso   1.000  C
  H73      1.0000 0.64895  0.65459  0.40432  Biso   1.000  H
  H74      1.0000 0.75387  0.65598  0.36782  Biso   1.000  H
  H75      1.0000 0.70541  0.68011  0.25198  Biso   1.000  H
  C65      1.0000 0.28521  0.74281  0.10229  Biso   1.000  C
  H76      1.0000 0.35111  0.65459  0.09571  Biso   1.000  H
  H77      1.0000 0.24610  0.65598  0.13221  Biso   1.000  H
  O12      1.0000 0.56651  0.68202  0.13360  Biso   1.000  O
  C66      1.0000 0.81163  0.77486  0.38179  Biso   1.000  C
  C67      1.0000 0.64771  0.77328  0.43548  Biso   1.000  C
  C68      1.0000 0.18843  0.77486  0.11824  Biso   1.000  C
  C69      1.0000 0.35234  0.77328  0.06454  Biso   1.000  C
  C70      1.0000 0.69142  0.68678  0.13202  Biso   1.000  C
  O13      1.0000 0.87472  0.74244  0.34409  Biso   1.000  O
  C71      1.0000 0.83875  0.83589  0.40292  Biso   1.000  C
  H78      1.0000 0.58409  0.75250  0.44711  Biso   1.000  H
  C72      1.0000 0.67458  0.83430  0.45604  Biso   1.000  C
  O14      1.0000 0.12534  0.74244  0.15593  Biso   1.000  O
  C73      1.0000 0.16131  0.83589  0.09710  Biso   1.000  C
  H79      1.0000 0.41588  0.75250  0.05292  Biso   1.000  H
  C74      1.0000 0.32537  0.83430  0.04394  Biso   1.000  C
  H80      1.0000 0.73820  0.65389  0.15771  Biso   1.000  H
  H81      1.0000 0.72424  0.72660  0.14931  Biso   1.000  H
  C75      1.0000 0.69891  0.68067  0.06238  Biso   1.000  C
  C76      1.0000 0.98958  0.76694  0.33963  Biso   1.000  C
  C77      1.0000 0.76999  0.86649  0.43961  Biso   1.000  C
  H82      1.0000 0.90363  0.85648  0.39231  Biso   1.000  H
  O15      1.0000 0.61112  0.86696  0.49330  Biso   1.000  O
  C78      1.0000 0.01039  0.76694  0.16040  Biso   1.000  C
  C79      1.0000 0.22996  0.86649  0.06037  Biso   1.000  C
  H83      1.0000 0.09643  0.85648  0.10772  Biso   1.000  H
  O16      1.0000 0.38892  0.86696  0.00668  Biso   1.000  O
  H84      1.0000 0.78377  0.67872  0.06080  Biso   1.000  H
  H85      1.0000 0.66378  0.71752  0.03900  Biso   1.000  H
  C80      1.0000 0.63310  0.62319  0.02920  Biso   1.000  C
  H86      1.0000 0.97862  0.80822  0.32181  Biso   1.000  H
  H87      1.0000 0.02411  0.74072  0.31230  Biso   1.000  H
  H88      1.0000 0.04326  0.76848  0.38160  Biso   1.000  H
  C81      1.0000 0.79220  0.93478  0.45729  Biso   1.000  C
  C82      1.0000 0.50832  0.83752  0.50805  Biso   1.000  C
  H89      1.0000 0.02143  0.80822  0.17822  Biso   1.000  H
  H90      1.0000 0.97593  0.74072  0.18768  Biso   1.000  H
  H91      1.0000 0.95669  0.76848  0.11838  Biso   1.000  H
  C83      1.0000 0.20775  0.93478  0.04269  Biso   1.000  C
  C84      1.0000 0.49174  0.83752  0.99198  Biso   1.000  C
  H92      1.0000 0.54611  0.63069  0.01940  Biso   1.000  H
  H93      1.0000 0.65016  0.58821  0.05859  Biso   1.000  H
  C85      1.0000 0.66996  0.60605  0.96725  Biso   1.000  C
  C86      1.0000 0.71733  0.97545  0.40441  Biso   1.000  C
  H94      1.0000 0.76971  0.94322  0.49739  Biso   1.000  H
  H95      1.0000 0.87801  0.94438  0.46310  Biso   1.000  H
  H96      1.0000 0.47290  0.86491  0.53398  Biso   1.000  H
  H97      1.0000 0.53348  0.79960  0.53110  Biso   1.000  H
  H98      1.0000 0.44928  0.82829  0.46891  Biso   1.000  H
  C87      1.0000 0.28271  0.97545  0.09557  Biso   1.000  C
  H99      1.0000 0.23033  0.94322  0.00259  Biso   1.000  H
  H100     1.0000 0.12202  0.94438  0.03688  Biso   1.000  H
  H101     1.0000 0.55069  0.82829  0.03112  Biso   1.000  H
  H102     1.0000 0.52714  0.86491  0.96600  Biso   1.000  H
  H103     1.0000 0.46647  0.79960  0.96888  Biso   1.000  H
  H104     1.0000 0.62609  0.56962  0.94881  Biso   1.000  H
  H105     1.0000 0.75583  0.59771  0.97671  Biso   1.000  H
  H106     1.0000 0.65126  0.64001  0.93738  Biso   1.000  H
  C88      1.0000 0.76713  0.99744  0.35490  Biso   1.000  C
  C89      1.0000 0.59640  0.99012  0.40288  Biso   1.000  C
  C90      1.0000 0.23290  0.99744  0.14508  Biso   1.000  C
  C91      1.0000 0.40357  0.99012  0.09715  Biso   1.000  C
  O17      1.0000 0.88691  0.98104  0.35917  Biso   1.000  O
  C92      1.0000 0.69781  0.03359  0.30548  Biso   1.000  C
  H107     1.0000 0.56200  0.97601  0.43558  Biso   1.000  H
  C93      1.0000 0.52645  0.02553  0.35327  Biso   1.000  C
  O18      1.0000 0.11306  0.98104  0.14086  Biso   1.000  O
  C94      1.0000 0.30216  0.03359  0.19455  Biso   1.000  C
  H108     1.0000 0.43804  0.97601  0.06440  Biso   1.000  H
  C95      1.0000 0.47349  0.02553  0.14671  Biso   1.000  C
  C96      1.0000 0.94966  0.01295  0.31994  Biso   1.000  C
  C97      1.0000 0.57650  0.04817  0.30390  Biso   1.000  C
  H109     1.0000 0.73262  0.04821  0.27311  Biso   1.000  H
  O19      1.0000 0.40584  0.04081  0.34870  Biso   1.000  O
  C98      1.0000 0.05028  0.01295  0.18004  Biso   1.000  C
  C99      1.0000 0.42347  0.04817  0.19613  Biso   1.000  C
  H110     1.0000 0.26743  0.04821  0.22691  Biso   1.000  H
  O20      1.0000 0.59413  0.04081  0.15132  Biso   1.000  O
  H111     1.0000 0.95163  0.05660  0.32978  Biso   1.000  H
  H112     1.0000 0.90902  0.00671  0.27571  Biso   1.000  H
  H113     1.0000 0.03140  0.99730  0.32748  Biso   1.000  H
  C100     1.0000 0.50003  0.08716  0.25001  Biso   1.000  C
  C101     1.0000 0.34814  0.01332  0.39404  Biso   1.000  C
  H114     1.0000 0.96864  0.99730  0.17250  Biso   1.000  H
  H115     1.0000 0.04841  0.05660  0.17020  Biso   1.000  H
  H116     1.0000 0.09104  0.00671  0.22432  Biso   1.000  H
  C102     1.0000 0.65192  0.01332  0.10599  Biso   1.000  C
  H117     1.0000 0.54880  0.11441  0.23172  Biso   1.000  H
  H118     1.0000 0.45117  0.11441  0.26831  Biso   1.000  H
  H119     1.0000 0.34972  0.96879  0.39010  Biso   1.000  H
  H120     1.0000 0.26535  0.02730  0.38592  Biso   1.000  H
  H121     1.0000 0.39050  0.02529  0.43659  Biso   1.000  H
  H122     1.0000 0.65032  0.96879  0.10988  Biso   1.000  H
  H123     1.0000 0.73471  0.02730  0.11411  Biso   1.000  H
  H124     1.0000 0.60954  0.02529  0.06339  Biso   1.000  H
  C103     1.0000 0.84809  0.51330  0.39404  Biso   1.000  C
  O21      1.0000 0.90588  0.54083  0.34870  Biso   1.000  O
  H125     1.0000 0.76531  0.52732  0.38592  Biso   1.000  H
  H126     1.0000 0.89045  0.52532  0.43659  Biso   1.000  H
  H127     1.0000 0.84968  0.46881  0.39010  Biso   1.000  H
  C104     1.0000 0.02650  0.52550  0.35327  Biso   1.000  C
  C105     1.0000 0.07654  0.54819  0.30390  Biso   1.000  C
  C106     1.0000 0.09644  0.49010  0.40288  Biso   1.000  C
  C107     1.0000 0.99998  0.58718  0.25001  Biso   1.000  C
  C108     1.0000 0.19776  0.53361  0.30548  Biso   1.000  C
  C109     1.0000 0.21729  0.47543  0.40441  Biso   1.000  C
  H128     1.0000 0.06195  0.47599  0.43558  Biso   1.000  H
  C110     1.0000 0.92351  0.54819  0.19613  Biso   1.000  C
  H129     1.0000 0.95122  0.61438  0.26831  Biso   1.000  H
  H130     1.0000 0.04884  0.61438  0.23172  Biso   1.000  H
  H131     1.0000 0.23258  0.54819  0.27311  Biso   1.000  H
  C111     1.0000 0.26709  0.49746  0.35490  Biso   1.000  C
  C112     1.0000 0.29224  0.43476  0.45729  Biso   1.000  C
  C113     1.0000 0.80221  0.53361  0.19455  Biso   1.000  C
  C114     1.0000 0.97354  0.52550  0.14671  Biso   1.000  C
  O22      1.0000 0.38696  0.48106  0.35917  Biso   1.000  O
  C115     1.0000 0.27003  0.36647  0.43961  Biso   1.000  C
  H132     1.0000 0.26966  0.44319  0.49739  Biso   1.000  H
  H133     1.0000 0.37797  0.44440  0.46310  Biso   1.000  H
  C116     1.0000 0.73286  0.49746  0.14508  Biso   1.000  C
  H134     1.0000 0.76739  0.54819  0.22691  Biso   1.000  H
  C117     1.0000 0.90361  0.49010  0.09715  Biso   1.000  C
  O23      1.0000 0.09417  0.54083  0.15132  Biso   1.000  O
  C118     1.0000 0.44971  0.51293  0.31994  Biso   1.000  C
  C119     1.0000 0.33871  0.33591  0.40292  Biso   1.000  C
  C120     1.0000 0.17462  0.33433  0.45604  Biso   1.000  C
  C121     1.0000 0.78266  0.47543  0.09557  Biso   1.000  C
  O24      1.0000 0.61310  0.48106  0.14086  Biso   1.000  O
  H135     1.0000 0.93799  0.47599  0.06440  Biso   1.000  H
  C122     1.0000 0.15188  0.51330  0.10599  Biso   1.000  C
  H136     1.0000 0.53135  0.49732  0.32748  Biso   1.000  H
  H137     1.0000 0.45159  0.55662  0.32978  Biso   1.000  H
  H138     1.0000 0.40898  0.50668  0.27571  Biso   1.000  H
  C123     1.0000 0.31158  0.27484  0.38179  Biso   1.000  C
  H139     1.0000 0.40359  0.35650  0.39231  Biso   1.000  H
  C124     1.0000 0.14767  0.27330  0.43548  Biso   1.000  C
  O25      1.0000 0.11107  0.36698  0.49330  Biso   1.000  O
  C125     1.0000 0.70779  0.43476  0.04269  Biso   1.000  C
  C126     1.0000 0.55033  0.51293  0.18004  Biso   1.000  C
  H140     1.0000 0.23466  0.52732  0.11411  Biso   1.000  H
  H141     1.0000 0.10949  0.52532  0.06339  Biso   1.000  H
  H142     1.0000 0.15027  0.46881  0.10988  Biso   1.000  H
  C127     1.0000 0.21478  0.24284  0.39769  Biso   1.000  C
  O26      1.0000 0.37467  0.24242  0.34409  Biso   1.000  O
  H143     1.0000 0.08413  0.25248  0.44711  Biso   1.000  H
  C128     1.0000 0.00827  0.33754  0.50805  Biso   1.000  C
  C129     1.0000 0.73000  0.36647  0.06037  Biso   1.000  C
  H144     1.0000 0.73028  0.44319  0.00259  Biso   1.000  H
  H145     1.0000 0.62198  0.44440  0.03688  Biso   1.000  H
  H146     1.0000 0.46860  0.49732  0.17250  Biso   1.000  H
  H147     1.0000 0.54836  0.55662  0.17020  Biso   1.000  H
  H148     1.0000 0.59099  0.50668  0.22432  Biso   1.000  H
  C130     1.0000 0.18141  0.17748  0.37310  Biso   1.000  C
  C131     1.0000 0.48962  0.26697  0.33963  Biso   1.000  C
  H149     1.0000 0.97285  0.36489  0.53398  Biso   1.000  H
  H150     1.0000 0.94933  0.32832  0.46891  Biso   1.000  H
  H151     1.0000 0.03353  0.29962  0.53110  Biso   1.000  H
  C132     1.0000 0.66126  0.33591  0.09710  Biso   1.000  C
  C133     1.0000 0.82541  0.33433  0.04394  Biso   1.000  C
  C134     1.0000 0.08741  0.17888  0.30918  Biso   1.000  C
  H152     1.0000 0.14890  0.15461  0.40432  Biso   1.000  H
  H153     1.0000 0.25391  0.15601  0.36782  Biso   1.000  H
  H154     1.0000 0.52406  0.24070  0.31230  Biso   1.000  H
  H155     1.0000 0.54330  0.26851  0.38160  Biso   1.000  H
  H156     1.0000 0.47858  0.30819  0.32181  Biso   1.000  H
  C135     1.0000 0.68839  0.27484  0.11824  Biso   1.000  C
  H157     1.0000 0.59638  0.35650  0.10772  Biso   1.000  H
  C136     1.0000 0.85230  0.27330  0.06454  Biso   1.000  C
  O27      1.0000 0.88887  0.36698  0.00668  Biso   1.000  O
  C137     1.0000 0.96258  0.18079  0.30721  Biso   1.000  C
  C138     1.0000 0.12297  0.17995  0.25141  Biso   1.000  C
  O28      1.0000 0.62530  0.24242  0.15593  Biso   1.000  O
  C139     1.0000 0.78516  0.24284  0.10229  Biso   1.000  C
  H158     1.0000 0.91593  0.25248  0.05292  Biso   1.000  H
  C140     1.0000 0.99170  0.33754  0.99198  Biso   1.000  C
  C141     1.0000 0.87698  0.17995  0.24857  Biso   1.000  C
  O29      1.0000 0.93348  0.18200  0.36638  Biso   1.000  O
  C142     1.0000 0.03737  0.18079  0.19277  Biso   1.000  C
  H159     1.0000 0.20536  0.18009  0.25198  Biso   1.000  H
  C143     1.0000 0.51043  0.26697  0.16040  Biso   1.000  C
  C144     1.0000 0.81863  0.17748  0.12688  Biso   1.000  C
  H160     1.0000 0.96651  0.29962  0.96888  Biso   1.000  H
  H161     1.0000 0.02710  0.36489  0.96600  Biso   1.000  H
  H162     1.0000 0.05073  0.32832  0.03112  Biso   1.000  H
  C145     1.0000 0.91264  0.17888  0.19085  Biso   1.000  C
  H163     1.0000 0.79458  0.18009  0.24800  Biso   1.000  H
  C146     1.0000 0.80859  0.18675  0.36801  Biso   1.000  C
  O30      1.0000 0.06646  0.18200  0.13360  Biso   1.000  O
  H164     1.0000 0.47588  0.24070  0.18768  Biso   1.000  H
  H165     1.0000 0.45673  0.26851  0.11838  Biso   1.000  H
  H166     1.0000 0.52139  0.30819  0.17822  Biso   1.000  H
  H167     1.0000 0.85107  0.15461  0.09571  Biso   1.000  H
  H168     1.0000 0.74615  0.15601  0.13221  Biso   1.000  H
  H169     1.0000 0.76181  0.15391  0.34232  Biso   1.000  H
  H170     1.0000 0.77577  0.22658  0.35072  Biso   1.000  H
  C147     1.0000 0.80108  0.18065  0.43760  Biso   1.000  C
  C148     1.0000 0.19138  0.18675  0.13202  Biso   1.000  C
  H171     1.0000 0.71622  0.17869  0.43918  Biso   1.000  H
  H172     1.0000 0.83621  0.21750  0.46098  Biso   1.000  H
  C149     1.0000 0.86689  0.12321  0.47078  Biso   1.000  C
  H173     1.0000 0.23825  0.15391  0.15771  Biso   1.000  H
  H174     1.0000 0.22420  0.22658  0.14931  Biso   1.000  H
  C150     1.0000 0.19886  0.18065  0.06238  Biso   1.000  C
  H175     1.0000 0.95389  0.13071  0.48058  Biso   1.000  H
  H176     1.0000 0.84983  0.08818  0.44139  Biso   1.000  H
  C151     1.0000 0.83004  0.10607  0.53273  Biso   1.000  C
  H177     1.0000 0.28382  0.17869  0.06080  Biso   1.000  H
  H178     1.0000 0.16382  0.21750  0.03900  Biso   1.000  H
  C152     1.0000 0.13306  0.12321  0.02920  Biso   1.000  C
  H179     1.0000 0.87392  0.06960  0.55122  Biso   1.000  H
  H180     1.0000 0.74419  0.09768  0.52332  Biso   1.000  H
  H181     1.0000 0.84873  0.13998  0.56260  Biso   1.000  H
  C153     1.0000 0.17000  0.10607  0.96725  Biso   1.000  C
  H182     1.0000 0.04606  0.13071  0.01940  Biso   1.000  H
  H183     1.0000 0.15021  0.08818  0.05859  Biso   1.000  H
  H184     1.0000 0.12614  0.06960  0.94881  Biso   1.000  H
  H185     1.0000 0.25578  0.09768  0.97671  Biso   1.000  H
  H186     1.0000 0.15131  0.13998  0.93738  Biso   1.000  H
  C154     1.0000 0.15191  0.48670  0.60597  Biso   1.000  C
  O31      1.0000 0.09412  0.45917  0.65130  Biso   1.000  O
  H187     1.0000 0.23470  0.47268  0.61409  Biso   1.000  H
  H188     1.0000 0.10955  0.47468  0.56342  Biso   1.000  H
  H189     1.0000 0.15033  0.53119  0.60991  Biso   1.000  H
  C155     1.0000 0.97349  0.47450  0.64669  Biso   1.000  C
  C156     1.0000 0.92346  0.45181  0.69611  Biso   1.000  C
  C157     1.0000 0.90356  0.50990  0.59713  Biso   1.000  C
  C158     1.0000 0.00002  0.41282  0.74999  Biso   1.000  C
  C159     1.0000 0.80216  0.46639  0.69453  Biso   1.000  C
  C160     1.0000 0.78270  0.52457  0.59555  Biso   1.000  C
  H190     1.0000 0.93803  0.52401  0.56438  Biso   1.000  H
  C161     1.0000 0.07649  0.45181  0.80388  Biso   1.000  C
  H191     1.0000 0.04879  0.38562  0.73170  Biso   1.000  H
  H192     1.0000 0.95116  0.38562  0.76829  Biso   1.000  H
  H193     1.0000 0.76743  0.45181  0.72689  Biso   1.000  H
  C162     1.0000 0.73289  0.50254  0.64506  Biso   1.000  C
  C163     1.0000 0.70776  0.56524  0.54272  Biso   1.000  C
  C164     1.0000 0.19780  0.46639  0.80546  Biso   1.000  C
  C165     1.0000 0.02647  0.47450  0.85329  Biso   1.000  C
  O32      1.0000 0.61305  0.51894  0.64084  Biso   1.000  O
  H194     1.0000 0.73034  0.55681  0.50262  Biso   1.000  H
  H195     1.0000 0.62204  0.55560  0.53691  Biso   1.000  H
  C166     1.0000 0.72997  0.63353  0.56039  Biso   1.000  C
  H196     1.0000 0.23262  0.45181  0.77309  Biso   1.000  H
  C167     1.0000 0.26706  0.50254  0.85493  Biso   1.000  C
  C168     1.0000 0.09639  0.50990  0.90286  Biso   1.000  C
  O33      1.0000 0.90583  0.45917  0.84868  Biso   1.000  O
  C169     1.0000 0.55030  0.48707  0.68007  Biso   1.000  C
  C170     1.0000 0.66130  0.66409  0.59709  Biso   1.000  C
  C171     1.0000 0.82538  0.66567  0.54397  Biso   1.000  C
  O34      1.0000 0.38690  0.51894  0.85915  Biso   1.000  O
  C172     1.0000 0.21734  0.52457  0.90444  Biso   1.000  C
  H197     1.0000 0.06201  0.52401  0.93561  Biso   1.000  H
  C173     1.0000 0.84813  0.48670  0.89402  Biso   1.000  C
  H198     1.0000 0.46863  0.50268  0.67248  Biso   1.000  H
  H199     1.0000 0.54840  0.44338  0.67018  Biso   1.000  H
  H200     1.0000 0.59103  0.49332  0.72430  Biso   1.000  H
  H201     1.0000 0.59642  0.64350  0.60770  Biso   1.000  H
  C174     1.0000 0.68842  0.72516  0.61822  Biso   1.000  C
  O35      1.0000 0.88893  0.63302  0.50670  Biso   1.000  O
  C175     1.0000 0.85234  0.72670  0.56452  Biso   1.000  C
  C176     1.0000 0.44968  0.48707  0.81997  Biso   1.000  C
  C177     1.0000 0.29219  0.56524  0.95727  Biso   1.000  C
  H202     1.0000 0.76534  0.47268  0.88590  Biso   1.000  H
  H203     1.0000 0.89051  0.47468  0.93662  Biso   1.000  H
  H204     1.0000 0.84971  0.53119  0.89008  Biso   1.000  H
  O36      1.0000 0.62533  0.75758  0.65591  Biso   1.000  O
  C178     1.0000 0.78520  0.75716  0.60227  Biso   1.000  C
  C179     1.0000 0.99173  0.66246  0.49196  Biso   1.000  C
  H205     1.0000 0.91588  0.74752  0.55290  Biso   1.000  H
  H206     1.0000 0.53141  0.50268  0.82751  Biso   1.000  H
  H207     1.0000 0.45164  0.44338  0.82981  Biso   1.000  H
  H208     1.0000 0.40901  0.49332  0.77569  Biso   1.000  H
  H209     1.0000 0.26972  0.55681  0.99742  Biso   1.000  H
  H210     1.0000 0.37800  0.55560  0.96308  Biso   1.000  H
  C180     1.0000 0.26998  0.63353  0.93959  Biso   1.000  C
  C181     1.0000 0.51038  0.73303  0.66038  Biso   1.000  C
  C182     1.0000 0.81859  0.82252  0.62691  Biso   1.000  C
  H211     1.0000 0.02713  0.63511  0.46598  Biso   1.000  H
  H212     1.0000 0.05068  0.67168  0.53110  Biso   1.000  H
  H213     1.0000 0.96648  0.70038  0.46891  Biso   1.000  H
  C183     1.0000 0.33874  0.66409  0.90290  Biso   1.000  C
  C184     1.0000 0.17459  0.66567  0.95607  Biso   1.000  C
  H214     1.0000 0.47594  0.75930  0.68771  Biso   1.000  H
  H215     1.0000 0.45670  0.73149  0.61841  Biso   1.000  H
  H216     1.0000 0.52143  0.69181  0.67820  Biso   1.000  H
  H217     1.0000 0.85110  0.84539  0.59569  Biso   1.000  H
  H218     1.0000 0.74610  0.84399  0.63219  Biso   1.000  H
  C185     1.0000 0.91259  0.82112  0.69083  Biso   1.000  C
  H219     1.0000 0.40362  0.64350  0.89229  Biso   1.000  H
  C186     1.0000 0.31162  0.72516  0.88177  Biso   1.000  C
  O37      1.0000 0.11113  0.63302  0.99333  Biso   1.000  O
  C187     1.0000 0.14770  0.72670  0.93546  Biso   1.000  C
  C188     1.0000 0.03743  0.81921  0.69280  Biso   1.000  C
  C189     1.0000 0.87703  0.82005  0.74860  Biso   1.000  C
  O38      1.0000 0.37471  0.75758  0.84407  Biso   1.000  O
  C190     1.0000 0.21484  0.75716  0.89772  Biso   1.000  C
  C191     1.0000 0.00831  0.66246  0.00803  Biso   1.000  C
  H220     1.0000 0.08408  0.74752  0.94709  Biso   1.000  H
  C192     1.0000 0.12301  0.82005  0.75139  Biso   1.000  C
  O39      1.0000 0.06652  0.81800  0.63363  Biso   1.000  O
  C193     1.0000 0.96263  0.81921  0.80724  Biso   1.000  C
  H221     1.0000 0.79462  0.81991  0.74798  Biso   1.000  H
  C194     1.0000 0.48957  0.73303  0.83961  Biso   1.000  C
  C195     1.0000 0.18136  0.82252  0.87308  Biso   1.000  C
  H222     1.0000 0.94928  0.67168  0.96889  Biso   1.000  H
  H223     1.0000 0.97291  0.63511  0.03401  Biso   1.000  H
  H224     1.0000 0.03347  0.70038  0.03108  Biso   1.000  H
  H225     1.0000 0.20542  0.81991  0.75201  Biso   1.000  H
  C196     1.0000 0.08736  0.82112  0.80916  Biso   1.000  C
  C197     1.0000 0.19142  0.81325  0.63200  Biso   1.000  C
  O40      1.0000 0.93354  0.81800  0.86641  Biso   1.000  O
  H226     1.0000 0.52410  0.75930  0.81228  Biso   1.000  H
  H227     1.0000 0.54325  0.73149  0.88158  Biso   1.000  H
  H228     1.0000 0.47861  0.69181  0.82179  Biso   1.000  H
  H229     1.0000 0.14894  0.84539  0.90430  Biso   1.000  H
  H230     1.0000 0.25386  0.84399  0.86780  Biso   1.000  H
  H231     1.0000 0.23819  0.84609  0.65769  Biso   1.000  H
  H232     1.0000 0.22424  0.77342  0.64929  Biso   1.000  H
  C198     1.0000 0.19892  0.81935  0.56241  Biso   1.000  C
  C199     1.0000 0.80863  0.81325  0.86799  Biso   1.000  C
  H233     1.0000 0.28376  0.82131  0.56078  Biso   1.000  H
  H234     1.0000 0.16379  0.78250  0.53902  Biso   1.000  H
  C200     1.0000 0.13311  0.87679  0.52923  Biso   1.000  C
  H235     1.0000 0.76176  0.84609  0.84230  Biso   1.000  H
  H236     1.0000 0.77581  0.77342  0.85070  Biso   1.000  H
  C201     1.0000 0.80112  0.81935  0.93758  Biso   1.000  C
  H237     1.0000 0.04610  0.86929  0.51938  Biso   1.000  H
  H238     1.0000 0.15018  0.91182  0.55862  Biso   1.000  H
  C202     1.0000 0.16997  0.89393  0.46728  Biso   1.000  C
  H239     1.0000 0.71619  0.82131  0.93921  Biso   1.000  H
  H240     1.0000 0.83618  0.78250  0.96101  Biso   1.000  H
  C203     1.0000 0.86695  0.87679  0.97081  Biso   1.000  C
  H241     1.0000 0.12609  0.93040  0.44879  Biso   1.000  H
  H242     1.0000 0.25582  0.90232  0.47669  Biso   1.000  H
  H243     1.0000 0.15128  0.86002  0.43740  Biso   1.000  H
  H244     1.0000 0.95394  0.86929  0.98061  Biso   1.000  H
  H245     1.0000 0.84980  0.91182  0.94142  Biso   1.000  H
  C204     1.0000 0.83001  0.89393  0.03276  Biso   1.000  C
  H246     1.0000 0.87387  0.93040  0.05120  Biso   1.000  H
  H247     1.0000 0.74422  0.90232  0.02330  Biso   1.000  H
  H248     1.0000 0.84868  0.86002  0.06258  Biso   1.000  H
