data_image0
_cell_length_a       12.183
_cell_length_b       13.265
_cell_length_c       19.646
_cell_angle_alpha    73.31
_cell_angle_beta     83.98
_cell_angle_gamma    76.65

_symmetry_space_group_name_H-M    "P 1"
_symmetry_int_tables_number       1

loop_
  _symmetry_equiv_pos_as_xyz
  'x, y, z'

loop_
  _atom_site_label
  _atom_site_occupancy
  _atom_site_fract_x
  _atom_site_fract_y
  _atom_site_fract_z
  _atom_site_thermal_displace_type
  _atom_site_B_iso_or_equiv
  _atom_site_type_symbol
  C1       1.0000 0.72650  0.31921  0.42920  Biso   1.000  C
  O1       1.0000 0.74134  0.20633  0.45537  Biso   1.000  O
  H1       1.0000 0.71100  0.35104  0.46824  Biso   1.000  H
  H2       1.0000 0.79402  0.33703  0.40341  Biso   1.000  H
  H3       1.0000 0.66427  0.34645  0.39804  Biso   1.000  H
  C2       1.0000 0.82639  0.15417  0.50324  Biso   1.000  C
  C3       1.0000 0.83696  0.04355  0.52994  Biso   1.000  C
  C4       1.0000 0.89773  0.20698  0.52366  Biso   1.000  C
  C5       1.0000 0.75973  0.98481  0.50755  Biso   1.000  C
  C6       1.0000 0.91835  0.98801  0.57924  Biso   1.000  C
  C7       1.0000 0.97962  0.15126  0.57323  Biso   1.000  C
  H4       1.0000 0.89080  0.28076  0.50404  Biso   1.000  H
  C8       1.0000 0.65532  0.98006  0.55637  Biso   1.000  C
  H5       1.0000 0.73771  0.02167  0.45920  Biso   1.000  H
  H6       1.0000 0.80012  0.91224  0.50861  Biso   1.000  H
  C9       1.0000 0.98799  0.04116  0.60147  Biso   1.000  C
  H7       1.0000 0.92670  0.91390  0.59780  Biso   1.000  H
  C10      1.0000 0.05408  0.21144  0.59626  Biso   1.000  C
  C11      1.0000 0.56055  0.06310  0.54286  Biso   1.000  C
  C12      1.0000 0.65258  0.89454  0.61716  Biso   1.000  C
  O2       1.0000 0.06927  0.98954  0.65141  Biso   1.000  O
  C13      1.0000 0.99626  0.26252  0.65402  Biso   1.000  C
  H8       1.0000 0.07335  0.26701  0.55552  Biso   1.000  H
  H9       1.0000 0.12364  0.16203  0.61370  Biso   1.000  H
  C14      1.0000 0.46593  0.06236  0.58855  Biso   1.000  C
  H10      1.0000 0.56054  0.12045  0.50233  Biso   1.000  H
  C15      1.0000 0.55739  0.89271  0.66247  Biso   1.000  C
  O3       1.0000 0.74974  0.81369  0.62780  Biso   1.000  O
  C16      1.0000 0.08400  0.87601  0.67822  Biso   1.000  C
  C17      1.0000 0.92654  0.36572  0.63764  Biso   1.000  C
  C18      1.0000 0.00875  0.20699  0.72534  Biso   1.000  C
  O4       1.0000 0.36975  0.14302  0.57818  Biso   1.000  O
  C19      1.0000 0.46282  0.97699  0.64934  Biso   1.000  C
  H11      1.0000 0.55653  0.83441  0.70231  Biso   1.000  H
  C20      1.0000 0.75145  0.72593  0.68896  Biso   1.000  C
  H12      1.0000 0.14670  0.84889  0.70890  Biso   1.000  H
  H13      1.0000 0.01670  0.85859  0.70454  Biso   1.000  H
  H14      1.0000 0.09851  0.84381  0.63934  Biso   1.000  H
  O5       1.0000 0.91937  0.41859  0.56600  Biso   1.000  O
  C21      1.0000 0.86971  0.40889  0.69109  Biso   1.000  C
  C22      1.0000 0.95394  0.25182  0.77890  Biso   1.000  C
  H15      1.0000 0.05476  0.13852  0.73752  Biso   1.000  H
  C23      1.0000 0.37134  0.23432  0.51898  Biso   1.000  C
  C24      1.0000 0.36207  0.97759  0.70156  Biso   1.000  C
  H16      1.0000 0.73823  0.75180  0.73060  Biso   1.000  H
  H17      1.0000 0.69365  0.68865  0.68673  Biso   1.000  H
  H18      1.0000 0.82391  0.67758  0.69103  Biso   1.000  H
  C25      1.0000 0.85148  0.52427  0.54680  Biso   1.000  C
  C26      1.0000 0.88121  0.35324  0.76214  Biso   1.000  C
  H19      1.0000 0.82275  0.47689  0.67891  Biso   1.000  H
  O6       1.0000 0.96839  0.20215  0.85027  Biso   1.000  O
  H20      1.0000 0.43085  0.26822  0.52339  Biso   1.000  H
  H21      1.0000 0.38414  0.21206  0.47590  Biso   1.000  H
  H22      1.0000 0.30019  0.28447  0.51760  Biso   1.000  H
  C27      1.0000 0.37056  0.03970  0.75417  Biso   1.000  C
  H23      1.0000 0.29346  0.01030  0.67572  Biso   1.000  H
  H24      1.0000 0.35809  0.90407  0.72715  Biso   1.000  H
  H25      1.0000 0.87922  0.56961  0.56823  Biso   1.000  H
  H26      1.0000 0.85453  0.55253  0.49600  Biso   1.000  H
  H27      1.0000 0.77482  0.52196  0.56334  Biso   1.000  H
  C28      1.0000 0.81323  0.39881  0.81974  Biso   1.000  C
  C29      1.0000 0.03978  0.09752  0.86862  Biso   1.000  C
  C30      1.0000 0.32394  0.14903  0.74060  Biso   1.000  C
  C31      1.0000 0.43007  0.98842  0.81629  Biso   1.000  C
  C32      1.0000 0.70558  0.35596  0.84139  Biso   1.000  C
  H28      1.0000 0.85876  0.38001  0.86091  Biso   1.000  H
  H29      1.0000 0.79401  0.47671  0.80251  Biso   1.000  H
  H30      1.0000 0.04208  0.07050  0.91941  Biso   1.000  H
  H31      1.0000 0.01067  0.04988  0.84995  Biso   1.000  H
  H32      1.0000 0.11469  0.10148  0.84883  Biso   1.000  H
  C33      1.0000 0.33553  0.20713  0.78714  Biso   1.000  C
  H33      1.0000 0.28406  0.18413  0.69954  Biso   1.000  H
  C34      1.0000 0.43922  0.04555  0.86367  Biso   1.000  C
  O7       1.0000 0.47705  0.88047  0.82612  Biso   1.000  O
  C35      1.0000 0.71127  0.25352  0.88777  Biso   1.000  C
  C36      1.0000 0.60105  0.41399  0.81559  Biso   1.000  C
  O8       1.0000 0.29454  0.31598  0.77549  Biso   1.000  O
  C37      1.0000 0.39330  0.15495  0.84974  Biso   1.000  C
  H34      1.0000 0.47662  0.00997  0.90553  Biso   1.000  H
  C38      1.0000 0.52710  0.82268  0.89277  Biso   1.000  C
  C39      1.0000 0.61623  0.20910  0.90665  Biso   1.000  C
  H35      1.0000 0.78025  0.21407  0.90643  Biso   1.000  H
  C40      1.0000 0.50512  0.37029  0.83575  Biso   1.000  C
  O9       1.0000 0.59855  0.51588  0.76964  Biso   1.000  O
  C41      1.0000 0.21386  0.36852  0.72162  Biso   1.000  C
  C42      1.0000 0.40757  0.21829  0.90032  Biso   1.000  C
  H36      1.0000 0.58768  0.85448  0.89984  Biso   1.000  H
  H37      1.0000 0.47107  0.82591  0.93143  Biso   1.000  H
  C43      1.0000 0.57282  0.70736  0.89191  Biso   1.000  C
  C44      1.0000 0.51176  0.26678  0.88096  Biso   1.000  C
  O10      1.0000 0.61857  0.10689  0.95207  Biso   1.000  O
  H38      1.0000 0.43552  0.41077  0.81873  Biso   1.000  H
  C45      1.0000 0.49076  0.57810  0.74571  Biso   1.000  C
  H39      1.0000 0.25092  0.37599  0.67481  Biso   1.000  H
  H40      1.0000 0.15668  0.32673  0.72582  Biso   1.000  H
  C46      1.0000 0.16066  0.47783  0.73199  Biso   1.000  C
  H41      1.0000 0.41320  0.17110  0.94834  Biso   1.000  H
  H42      1.0000 0.34135  0.27557  0.89952  Biso   1.000  H
  H43      1.0000 0.51620  0.68112  0.87452  Biso   1.000  H
  H44      1.0000 0.63886  0.70327  0.85984  Biso   1.000  H
  C47      1.0000 0.60456  0.63689  0.96621  Biso   1.000  C
  C48      1.0000 0.72597  0.04301  0.97494  Biso   1.000  C
  H45      1.0000 0.44144  0.58690  0.78592  Biso   1.000  H
  H46      1.0000 0.49905  0.64750  0.71582  Biso   1.000  H
  H47      1.0000 0.45932  0.54178  0.71912  Biso   1.000  H
  H48      1.0000 0.21803  0.52044  0.72353  Biso   1.000  H
  H49      1.0000 0.10379  0.51384  0.69683  Biso   1.000  H
  C49      1.0000 0.10588  0.47379  0.80565  Biso   1.000  C
  H50      1.0000 0.65707  0.66697  0.98424  Biso   1.000  H
  H51      1.0000 0.53719  0.63916  0.99722  Biso   1.000  H
  C50      1.0000 0.65766  0.51957  0.96983  Biso   1.000  C
  H52      1.0000 0.77337  0.03228  0.93436  Biso   1.000  H
  H53      1.0000 0.71647  0.97458  0.00568  Biso   1.000  H
  H54      1.0000 0.76017  0.07903  0.00020  Biso   1.000  H
  H55      1.0000 0.16453  0.44951  0.84001  Biso   1.000  H
  H56      1.0000 0.05823  0.42129  0.81746  Biso   1.000  H
  C51      1.0000 0.03567  0.58048  0.81224  Biso   1.000  C
  H57      1.0000 0.60791  0.49036  0.94872  Biso   1.000  H
  H58      1.0000 0.72851  0.51620  0.94223  Biso   1.000  H
  C52      1.0000 0.67931  0.45054  0.04589  Biso   1.000  C
  H59      1.0000 0.07961  0.63554  0.79331  Biso   1.000  H
  H60      1.0000 0.97005  0.59927  0.78352  Biso   1.000  H
  C53      1.0000 0.99618  0.58092  0.88782  Biso   1.000  C
  H61      1.0000 0.60823  0.45519  0.07338  Biso   1.000  H
  H62      1.0000 0.72905  0.47995  0.06668  Biso   1.000  H
  C54      1.0000 0.73127  0.33267  0.05216  Biso   1.000  C
  H63      1.0000 0.05966  0.56694  0.91766  Biso   1.000  H
  H64      1.0000 0.06245  0.54746  0.91606  Biso   1.000  H
  H65      1.0000 0.95044  0.52769  0.90835  Biso   1.000  H
  C55      1.0000 0.94194  0.67150  0.91324  Biso   1.000  C
  C56      1.0000 0.92013  0.70516  0.87814  Biso   1.000  C
  H66      1.0000 0.94580  0.53099  0.90223  Biso   1.000  H
  H67      1.0000 0.80150  0.32808  0.02376  Biso   1.000  H
  H68      1.0000 0.68057  0.30277  0.03238  Biso   1.000  H
  C57      1.0000 0.75496  0.26503  0.12768  Biso   1.000  C
  H69      1.0000 0.98431  0.72710  0.89165  Biso   1.000  H
  C58      1.0000 0.86100  0.72409  0.94531  Biso   1.000  C
  H70      1.0000 0.86843  0.69679  0.89245  Biso   1.000  H
  C59      1.0000 0.92269  0.67125  0.98616  Biso   1.000  C
  H71      1.0000 0.86443  0.71956  0.84293  Biso   1.000  H
  H72      1.0000 0.96942  0.75580  0.86032  Biso   1.000  H
  H73      1.0000 0.80449  0.29569  0.14789  Biso   1.000  H
  H74      1.0000 0.68460  0.26800  0.15587  Biso   1.000  H
  C60      1.0000 0.80932  0.14822  0.13231  Biso   1.000  C
  C61      1.0000 0.86051  0.78589  0.99754  Biso   1.000  C
  C62      1.0000 0.92540  0.74515  0.99525  Biso   1.000  C
  H75      1.0000 0.86905  0.80135  0.96824  Biso   1.000  H
  H76      1.0000 0.84920  0.65458  0.00238  Biso   1.000  H
  H77      1.0000 0.97909  0.61495  0.01397  Biso   1.000  H
  H78      1.0000 0.82651  0.11021  0.18082  Biso   1.000  H
  H79      1.0000 0.75807  0.11589  0.11598  Biso   1.000  H
  H80      1.0000 0.87753  0.14497  0.10311  Biso   1.000  H
  H81      1.0000 0.91766  0.82799  0.98334  Biso   1.000  H
  H82      1.0000 0.78799  0.83265  0.99914  Biso   1.000  H
  H83      1.0000 0.91071  0.74046  0.04487  Biso   1.000  H
  H84      1.0000 0.87567  0.73699  0.04370  Biso   1.000  H
  H85      1.0000 0.99864  0.76118  0.98095  Biso   1.000  H
  C63      1.0000 0.27350  0.68065  0.57084  Biso   1.000  C
  O11      1.0000 0.25866  0.79356  0.54462  Biso   1.000  O
  H86      1.0000 0.28901  0.64883  0.53180  Biso   1.000  H
  H87      1.0000 0.20599  0.66284  0.59663  Biso   1.000  H
  H88      1.0000 0.33574  0.65342  0.60200  Biso   1.000  H
  C64      1.0000 0.17361  0.84570  0.49680  Biso   1.000  C
  C65      1.0000 0.10225  0.79297  0.47638  Biso   1.000  C
  C66      1.0000 0.16304  0.95632  0.47010  Biso   1.000  C
  C67      1.0000 0.02037  0.84869  0.42681  Biso   1.000  C
  H89      1.0000 0.10921  0.71911  0.49600  Biso   1.000  H
  C68      1.0000 0.08165  0.01186  0.42080  Biso   1.000  C
  C69      1.0000 0.24028  0.01506  0.49249  Biso   1.000  C
  C70      1.0000 0.94592  0.78843  0.40378  Biso   1.000  C
  C71      1.0000 0.01200  0.95879  0.39857  Biso   1.000  C
  H90      1.0000 0.07330  0.08597  0.40224  Biso   1.000  H
  C72      1.0000 0.34469  0.01980  0.44367  Biso   1.000  C
  H91      1.0000 0.26230  0.97820  0.54084  Biso   1.000  H
  H92      1.0000 0.19988  0.08763  0.49143  Biso   1.000  H
  C73      1.0000 0.00375  0.73735  0.34602  Biso   1.000  C
  H93      1.0000 0.92666  0.73285  0.44452  Biso   1.000  H
  H94      1.0000 0.87637  0.83784  0.38634  Biso   1.000  H
  O12      1.0000 0.93074  0.01032  0.34863  Biso   1.000  O
  C74      1.0000 0.43945  0.93676  0.45718  Biso   1.000  C
  C75      1.0000 0.34742  0.10532  0.38288  Biso   1.000  C
  C76      1.0000 0.99126  0.79288  0.27470  Biso   1.000  C
  C77      1.0000 0.07346  0.63415  0.36240  Biso   1.000  C
  C78      1.0000 0.91600  0.12386  0.32182  Biso   1.000  C
  C79      1.0000 0.53406  0.93759  0.41149  Biso   1.000  C
  H95      1.0000 0.43946  0.87941  0.49771  Biso   1.000  H
  C80      1.0000 0.44262  0.10715  0.33757  Biso   1.000  C
  O13      1.0000 0.25026  0.18617  0.37224  Biso   1.000  O
  C81      1.0000 0.04606  0.74805  0.22114  Biso   1.000  C
  H96      1.0000 0.94524  0.86135  0.26252  Biso   1.000  H
  C82      1.0000 0.13029  0.59098  0.30895  Biso   1.000  C
  O14      1.0000 0.08063  0.58127  0.43404  Biso   1.000  O
  H97      1.0000 0.85331  0.15097  0.29114  Biso   1.000  H
  H98      1.0000 0.98330  0.14128  0.29550  Biso   1.000  H
  H99      1.0000 0.90150  0.15606  0.36070  Biso   1.000  H
  C83      1.0000 0.53718  0.02288  0.35070  Biso   1.000  C
  O15      1.0000 0.63025  0.85685  0.42186  Biso   1.000  O
  H100     1.0000 0.44348  0.16546  0.29773  Biso   1.000  H
  C84      1.0000 0.24855  0.27394  0.31108  Biso   1.000  C
  C85      1.0000 0.11880  0.64663  0.23790  Biso   1.000  C
  O16      1.0000 0.03161  0.79771  0.14977  Biso   1.000  O
  H101     1.0000 0.17726  0.52298  0.32113  Biso   1.000  H
  C86      1.0000 0.14853  0.47562  0.45319  Biso   1.000  C
  C87      1.0000 0.63793  0.02228  0.29847  Biso   1.000  C
  C88      1.0000 0.62867  0.76555  0.48106  Biso   1.000  C
  H102     1.0000 0.26177  0.24807  0.26944  Biso   1.000  H
  H103     1.0000 0.30626  0.31130  0.31331  Biso   1.000  H
  H104     1.0000 0.17609  0.32229  0.30901  Biso   1.000  H
  C89      1.0000 0.18678  0.60106  0.18030  Biso   1.000  C
  C90      1.0000 0.96021  0.90242  0.13142  Biso   1.000  C
  H105     1.0000 0.12078  0.43026  0.43181  Biso   1.000  H
  H106     1.0000 0.14548  0.44734  0.50404  Biso   1.000  H
  H107     1.0000 0.22517  0.47798  0.43670  Biso   1.000  H
  C91      1.0000 0.62945  0.96017  0.24587  Biso   1.000  C
  H108     1.0000 0.70655  0.98956  0.32432  Biso   1.000  H
  H109     1.0000 0.64191  0.09580  0.27289  Biso   1.000  H
  H110     1.0000 0.56916  0.73167  0.47659  Biso   1.000  H
  H111     1.0000 0.61587  0.78781  0.52414  Biso   1.000  H
  H112     1.0000 0.69981  0.71539  0.48244  Biso   1.000  H
  C92      1.0000 0.29442  0.64390  0.15865  Biso   1.000  C
  H113     1.0000 0.14125  0.61988  0.13908  Biso   1.000  H
  H114     1.0000 0.20600  0.52316  0.19753  Biso   1.000  H
  H115     1.0000 0.95792  0.92936  0.08063  Biso   1.000  H
  H116     1.0000 0.98934  0.94999  0.15009  Biso   1.000  H
  H117     1.0000 0.88532  0.89839  0.15121  Biso   1.000  H
  C93      1.0000 0.67606  0.85084  0.25944  Biso   1.000  C
  C94      1.0000 0.56993  0.01145  0.18375  Biso   1.000  C
  C95      1.0000 0.39896  0.58587  0.18445  Biso   1.000  C
  C96      1.0000 0.28872  0.74643  0.11227  Biso   1.000  C
  C97      1.0000 0.66447  0.79274  0.21290  Biso   1.000  C
  H118     1.0000 0.71594  0.81574  0.30050  Biso   1.000  H
  C98      1.0000 0.56079  0.95431  0.13637  Biso   1.000  C
  O17      1.0000 0.52295  0.11939  0.17392  Biso   1.000  O
  O18      1.0000 0.40137  0.48399  0.23040  Biso   1.000  O
  C99      1.0000 0.49489  0.62957  0.16429  Biso   1.000  C
  C100     1.0000 0.38378  0.79077  0.09339  Biso   1.000  C
  H119     1.0000 0.21976  0.78580  0.09361  Biso   1.000  H
  C101     1.0000 0.60670  0.84491  0.15030  Biso   1.000  C
  O19      1.0000 0.70545  0.68397  0.22455  Biso   1.000  O
  H120     1.0000 0.52338  0.98990  0.09451  Biso   1.000  H
  C102     1.0000 0.47291  0.17718  0.10727  Biso   1.000  C
  C103     1.0000 0.50925  0.42176  0.25433  Biso   1.000  C
  C104     1.0000 0.48825  0.73311  0.11903  Biso   1.000  C
  H121     1.0000 0.56448  0.58910  0.18131  Biso   1.000  H
  O20      1.0000 0.38144  0.89298  0.04797  Biso   1.000  O
  C105     1.0000 0.59244  0.78160  0.09967  Biso   1.000  C
  C106     1.0000 0.78614  0.63135  0.27842  Biso   1.000  C
  H122     1.0000 0.41233  0.14538  0.10020  Biso   1.000  H
  H123     1.0000 0.52885  0.17395  0.06861  Biso   1.000  H
  C107     1.0000 0.42719  0.29251  0.10813  Biso   1.000  C
  H124     1.0000 0.55856  0.41297  0.21412  Biso   1.000  H
  H125     1.0000 0.50096  0.35236  0.28422  Biso   1.000  H
  H126     1.0000 0.54068  0.45809  0.28092  Biso   1.000  H
  C108     1.0000 0.27401  0.95693  0.02510  Biso   1.000  C
  H127     1.0000 0.58681  0.82877  0.05170  Biso   1.000  H
  H128     1.0000 0.65866  0.72430  0.10052  Biso   1.000  H
  H129     1.0000 0.74908  0.62387  0.32523  Biso   1.000  H
  H130     1.0000 0.84333  0.67314  0.27422  Biso   1.000  H
  C109     1.0000 0.83933  0.52211  0.26805  Biso   1.000  C
  H131     1.0000 0.48381  0.31875  0.12552  Biso   1.000  H
  H132     1.0000 0.36115  0.29659  0.14020  Biso   1.000  H
  C110     1.0000 0.39544  0.36298  0.03383  Biso   1.000  C
  H133     1.0000 0.22663  0.96759  0.06568  Biso   1.000  H
  H134     1.0000 0.23984  0.92084  0.99984  Biso   1.000  H
  H135     1.0000 0.28345  0.02529  0.99436  Biso   1.000  H
  H136     1.0000 0.78196  0.47950  0.27651  Biso   1.000  H
  H137     1.0000 0.89614  0.48603  0.30321  Biso   1.000  H
  C111     1.0000 0.89413  0.52607  0.19439  Biso   1.000  C
  H138     1.0000 0.34293  0.33290  0.01580  Biso   1.000  H
  H139     1.0000 0.46282  0.36071  0.00282  Biso   1.000  H
  C112     1.0000 0.34234  0.48030  0.03021  Biso   1.000  C
  H140     1.0000 0.83548  0.55038  0.15998  Biso   1.000  H
  H141     1.0000 0.94178  0.57858  0.18258  Biso   1.000  H
  C113     1.0000 0.96434  0.41938  0.18780  Biso   1.000  C
  C114     1.0000 0.32070  0.54932  0.95415  Biso   1.000  C
  H142     1.0000 0.39209  0.50950  0.05132  Biso   1.000  H
  H143     1.0000 0.27149  0.48367  0.05781  Biso   1.000  H
  H144     1.0000 0.92039  0.36433  0.20673  Biso   1.000  H
  H145     1.0000 0.02995  0.40060  0.21652  Biso   1.000  H
  C115     1.0000 0.00383  0.41894  0.11222  Biso   1.000  C
  H146     1.0000 0.39177  0.54468  0.92666  Biso   1.000  H
  H147     1.0000 0.27095  0.51992  0.93336  Biso   1.000  H
  C116     1.0000 0.26873  0.66720  0.94788  Biso   1.000  C
  H148     1.0000 0.94035  0.43292  0.08238  Biso   1.000  H
  H149     1.0000 0.93756  0.45241  0.08398  Biso   1.000  H
  H150     1.0000 0.04957  0.47217  0.09169  Biso   1.000  H
  C117     1.0000 0.05807  0.32837  0.08680  Biso   1.000  C
  C118     1.0000 0.07988  0.29471  0.12190  Biso   1.000  C
  H151     1.0000 0.05420  0.46888  0.09781  Biso   1.000  H
  H152     1.0000 0.19851  0.67181  0.97623  Biso   1.000  H
  H153     1.0000 0.31943  0.69710  0.96766  Biso   1.000  H
  C119     1.0000 0.24505  0.73484  0.87236  Biso   1.000  C
  H154     1.0000 0.01570  0.27276  0.10839  Biso   1.000  H
  C120     1.0000 0.13901  0.27578  0.05473  Biso   1.000  C
  H155     1.0000 0.13158  0.30308  0.10759  Biso   1.000  H
  C121     1.0000 0.07731  0.32862  0.01388  Biso   1.000  C
  H156     1.0000 0.13558  0.28030  0.15711  Biso   1.000  H
  H157     1.0000 0.03058  0.24407  0.13972  Biso   1.000  H
  H158     1.0000 0.19549  0.70426  0.85215  Biso   1.000  H
  H159     1.0000 0.31539  0.73195  0.84417  Biso   1.000  H
  C122     1.0000 0.19069  0.85165  0.86773  Biso   1.000  C
  H160     1.0000 0.15081  0.34528  0.99766  Biso   1.000  H
  C123     1.0000 0.13941  0.21398  0.00250  Biso   1.000  C
  C124     1.0000 0.07461  0.25472  0.00479  Biso   1.000  C
  H161     1.0000 0.13096  0.19851  0.03180  Biso   1.000  H
  H162     1.0000 0.02091  0.38492  0.98607  Biso   1.000  H
  H163     1.0000 0.17350  0.88965  0.81922  Biso   1.000  H
  H164     1.0000 0.24194  0.88398  0.88406  Biso   1.000  H
  H165     1.0000 0.12239  0.85490  0.89693  Biso   1.000  H
  H166     1.0000 0.08929  0.25941  0.95516  Biso   1.000  H
  H167     1.0000 0.12434  0.26288  0.95634  Biso   1.000  H
  H168     1.0000 0.08234  0.17188  0.01670  Biso   1.000  H
  H169     1.0000 0.21201  0.16722  0.00090  Biso   1.000  H
  H170     1.0000 0.00136  0.23869  0.01909  Biso   1.000  H
  Ne1      1.0000 0.42045  0.84418  0.23508  Biso   1.000  Ne
  He1      1.0000 0.48894  0.53753  0.42982  Biso   1.000  He
  He2      1.0000 0.17868  0.10381  0.17901  Biso   1.000  He
  Ar1      1.0000 0.33149  0.84647  0.28670  Biso   1.000  Ar
  Ne2      1.0000 0.57955  0.15570  0.76495  Biso   1.000  Ne
  He3      1.0000 0.82274  0.89390  0.82225  Biso   1.000  He
  He4      1.0000 0.53852  0.41529  0.59578  Biso   1.000  He
  Ar2      1.0000 0.66851  0.15340  0.71334  Biso   1.000  Ar
