data_image0
_cell_length_a       17.744
_cell_length_b       17.242
_cell_length_c       20.354
_cell_angle_alpha    90
_cell_angle_beta     106.01
_cell_angle_gamma    90

_symmetry_space_group_name_H-M    "P 1"
_symmetry_int_tables_number       1

loop_
  _symmetry_equiv_pos_as_xyz
  'x, y, z'

loop_
  _atom_site_label
  _atom_site_occupancy
  _atom_site_fract_x
  _atom_site_fract_y
  _atom_site_fract_z
  _atom_site_thermal_displace_type
  _atom_site_B_iso_or_equiv
  _atom_site_type_symbol
  C1       1.0000 0.22336  0.56107  0.46390  Biso   1.000  C
  C2       1.0000 0.18453  0.56728  0.38784  Biso   1.000  C
  H1       1.0000 0.21254  0.60782  0.48619  Biso   1.000  H
  H2       1.0000 0.20102  0.51757  0.48220  Biso   1.000  H
  C3       1.0000 0.31234  0.55011  0.48010  Biso   1.000  C
  O1       1.0000 0.10260  0.57192  0.37987  Biso   1.000  O
  H3       1.0000 0.19673  0.52210  0.36423  Biso   1.000  H
  H4       1.0000 0.20272  0.61321  0.36929  Biso   1.000  H
  H5       1.0000 0.33473  0.54750  0.52932  Biso   1.000  H
  H6       1.0000 0.33522  0.59430  0.46318  Biso   1.000  H
  N1       1.0000 0.33113  0.47924  0.44882  Biso   1.000  N
  C4       1.0000 0.05325  0.57116  0.31491  Biso   1.000  C
  C5       1.0000 0.39382  0.47628  0.43037  Biso   1.000  C
  C6       1.0000 0.07909  0.57064  0.25587  Biso   1.000  C
  C7       1.0000 0.97344  0.57058  0.30918  Biso   1.000  C
  H7       1.0000 0.42486  0.52047  0.43441  Biso   1.000  H
  C8       1.0000 0.41855  0.40570  0.40308  Biso   1.000  C
  C9       1.0000 0.02661  0.57058  0.19080  Biso   1.000  C
  H8       1.0000 0.13265  0.57029  0.26022  Biso   1.000  H
  C10      1.0000 0.92090  0.57064  0.24412  Biso   1.000  C
  C11      1.0000 0.94352  0.56502  0.37174  Biso   1.000  C
  C12      1.0000 0.49064  0.40227  0.38866  Biso   1.000  C
  C13      1.0000 0.37065  0.33848  0.39239  Biso   1.000  C
  C14      1.0000 0.05654  0.56502  0.12829  Biso   1.000  C
  C15      1.0000 0.94680  0.57116  0.18508  Biso   1.000  C
  H9       1.0000 0.86741  0.57029  0.23982  Biso   1.000  H
  C16      1.0000 0.93622  0.48138  0.39250  Biso   1.000  C
  H10      1.0000 0.97913  0.59239  0.40931  Biso   1.000  H
  H11      1.0000 0.89274  0.59001  0.36229  Biso   1.000  H
  H12      1.0000 0.52296  0.44577  0.39623  Biso   1.000  H
  C17      1.0000 0.51476  0.33610  0.36372  Biso   1.000  C
  C18      1.0000 0.39575  0.27201  0.36771  Biso   1.000  C
  O2       1.0000 0.30121  0.33755  0.40609  Biso   1.000  O
  C19      1.0000 0.06382  0.48138  0.10749  Biso   1.000  C
  H13      1.0000 0.02093  0.59239  0.09073  Biso   1.000  H
  H14      1.0000 0.10730  0.59001  0.13770  Biso   1.000  H
  O3       1.0000 0.89746  0.57192  0.12017  Biso   1.000  O
  C20      1.0000 0.86525  0.44310  0.37052  Biso   1.000  C
  C21      1.0000 0.00033  0.44113  0.42981  Biso   1.000  C
  Br1      1.0000 0.61320  0.33001  0.34660  Biso   1.000  Br
  C22      1.0000 0.46780  0.26981  0.35319  Biso   1.000  C
  H15      1.0000 0.36425  0.22811  0.36060  Biso   1.000  H
  H16      1.0000 0.29103  0.38122  0.41718  Biso   1.000  H
  C23      1.0000 0.13481  0.44310  0.12952  Biso   1.000  C
  C24      1.0000 0.99973  0.44113  0.07023  Biso   1.000  C
  C25      1.0000 0.81552  0.56728  0.11214  Biso   1.000  C
  C26      1.0000 0.85884  0.36602  0.39086  Biso   1.000  C
  O4       1.0000 0.80068  0.48434  0.33065  Biso   1.000  O
  C27      1.0000 0.99546  0.36423  0.44719  Biso   1.000  C
  H17      1.0000 0.04855  0.46630  0.44381  Biso   1.000  H
  H18      1.0000 0.48463  0.22463  0.33673  Biso   1.000  H
  C28      1.0000 0.14122  0.36602  0.10918  Biso   1.000  C
  O5       1.0000 0.19937  0.48434  0.16934  Biso   1.000  O
  C29      1.0000 0.00460  0.36423  0.05285  Biso   1.000  C
  H19      1.0000 0.95151  0.46630  0.05622  Biso   1.000  H
  H20      1.0000 0.80334  0.52210  0.13581  Biso   1.000  H
  H21      1.0000 0.79732  0.61321  0.13070  Biso   1.000  H
  C30      1.0000 0.77671  0.56107  0.03614  Biso   1.000  C
  C31      1.0000 0.92280  0.32601  0.42827  Biso   1.000  C
  H22      1.0000 0.81015  0.34178  0.37859  Biso   1.000  H
  C32      1.0000 0.74851  0.44461  0.27959  Biso   1.000  C
  O6       1.0000 0.05748  0.31980  0.48327  Biso   1.000  O
  C33      1.0000 0.07718  0.32601  0.07171  Biso   1.000  C
  H23      1.0000 0.18989  0.34178  0.12139  Biso   1.000  H
  C34      1.0000 0.25154  0.44461  0.22040  Biso   1.000  C
  O7       1.0000 0.94256  0.31980  0.01671  Biso   1.000  O
  H24      1.0000 0.78750  0.60782  0.01380  Biso   1.000  H
  H25      1.0000 0.79902  0.51757  0.01779  Biso   1.000  H
  C35      1.0000 0.68770  0.55011  0.01988  Biso   1.000  C
  C36      1.0000 0.91657  0.24214  0.44775  Biso   1.000  C
  H26      1.0000 0.71463  0.41411  0.29881  Biso   1.000  H
  H27      1.0000 0.71772  0.48080  0.24728  Biso   1.000  H
  H28      1.0000 0.77650  0.41109  0.25689  Biso   1.000  H
  C37      1.0000 0.13288  0.35071  0.49303  Biso   1.000  C
  C38      1.0000 0.08349  0.24214  0.05229  Biso   1.000  C
  H29      1.0000 0.28541  0.41411  0.20118  Biso   1.000  H
  H30      1.0000 0.28233  0.48080  0.25270  Biso   1.000  H
  H31      1.0000 0.22349  0.41109  0.24309  Biso   1.000  H
  C39      1.0000 0.86718  0.35071  0.00700  Biso   1.000  C
  H32      1.0000 0.66544  0.54750  0.97071  Biso   1.000  H
  H33      1.0000 0.66482  0.59430  0.03680  Biso   1.000  H
  N2       1.0000 0.66893  0.47924  0.05122  Biso   1.000  N
  C40      1.0000 0.93836  0.18635  0.39853  Biso   1.000  C
  H34      1.0000 0.95076  0.23338  0.49329  Biso   1.000  H
  H35      1.0000 0.86314  0.23170  0.44882  Biso   1.000  H
  H36      1.0000 0.13883  0.39549  0.52202  Biso   1.000  H
  H37      1.0000 0.17113  0.31238  0.51420  Biso   1.000  H
  H38      1.0000 0.14002  0.36521  0.44969  Biso   1.000  H
  C41      1.0000 0.06170  0.18635  0.10151  Biso   1.000  C
  H39      1.0000 0.04929  0.23338  0.00670  Biso   1.000  H
  H40      1.0000 0.13692  0.23170  0.05122  Biso   1.000  H
  H41      1.0000 0.86134  0.39549  0.97802  Biso   1.000  H
  H42      1.0000 0.82903  0.31238  0.98579  Biso   1.000  H
  H43      1.0000 0.86003  0.36521  0.05030  Biso   1.000  H
  C42      1.0000 0.60622  0.47628  0.06962  Biso   1.000  C
  C43      1.0000 0.01363  0.15712  0.41003  Biso   1.000  C
  C44      1.0000 0.88380  0.16541  0.33832  Biso   1.000  C
  C45      1.0000 0.11618  0.16541  0.16167  Biso   1.000  C
  C46      1.0000 0.98643  0.15712  0.09001  Biso   1.000  C
  H44      1.0000 0.57519  0.52047  0.06558  Biso   1.000  H
  C47      1.0000 0.58149  0.40570  0.09691  Biso   1.000  C
  C48      1.0000 0.03410  0.10933  0.36305  Biso   1.000  C
  H45      1.0000 0.05134  0.16988  0.45030  Biso   1.000  H
  C49      1.0000 0.90250  0.11623  0.29196  Biso   1.000  C
  O8       1.0000 0.80893  0.19539  0.32912  Biso   1.000  O
  O9       1.0000 0.19114  0.19539  0.17092  Biso   1.000  O
  C50      1.0000 0.09749  0.11623  0.20803  Biso   1.000  C
  C51      1.0000 0.96589  0.10933  0.13693  Biso   1.000  C
  H46      1.0000 0.94871  0.16988  0.04968  Biso   1.000  H
  C52      1.0000 0.50941  0.40227  0.11132  Biso   1.000  C
  C53      1.0000 0.62940  0.33848  0.10759  Biso   1.000  C
  C54      1.0000 0.97824  0.08752  0.30351  Biso   1.000  C
  O10      1.0000 0.10843  0.07882  0.37266  Biso   1.000  O
  H47      1.0000 0.86424  0.10202  0.25260  Biso   1.000  H
  C55      1.0000 0.75960  0.19951  0.26139  Biso   1.000  C
  C56      1.0000 0.24044  0.19951  0.23859  Biso   1.000  C
  C57      1.0000 0.02182  0.08752  0.19653  Biso   1.000  C
  H48      1.0000 0.13581  0.10202  0.24739  Biso   1.000  H
  O11      1.0000 0.89163  0.07882  0.12737  Biso   1.000  O
  H49      1.0000 0.47711  0.44577  0.10381  Biso   1.000  H
  C58      1.0000 0.48531  0.33610  0.13632  Biso   1.000  C
  C59      1.0000 0.60429  0.27201  0.13228  Biso   1.000  C
  O12      1.0000 0.69883  0.33755  0.09389  Biso   1.000  O
  C60      1.0000 0.00002  0.03607  0.24999  Biso   1.000  C
  C61      1.0000 0.17174  0.12632  0.40389  Biso   1.000  C
  H50      1.0000 0.74622  0.14801  0.24422  Biso   1.000  H
  H51      1.0000 0.71262  0.22729  0.26108  Biso   1.000  H
  H52      1.0000 0.78641  0.22590  0.23302  Biso   1.000  H
  H53      1.0000 0.25384  0.14801  0.25582  Biso   1.000  H
  H54      1.0000 0.28743  0.22729  0.23890  Biso   1.000  H
  H55      1.0000 0.21365  0.22590  0.26701  Biso   1.000  H
  C62      1.0000 0.82830  0.12632  0.09609  Biso   1.000  C
  Br2      1.0000 0.38684  0.33001  0.15339  Biso   1.000  Br
  C63      1.0000 0.53218  0.26981  0.14680  Biso   1.000  C
  H56      1.0000 0.63579  0.22811  0.13938  Biso   1.000  H
  H57      1.0000 0.70902  0.38122  0.08280  Biso   1.000  H
  H58      1.0000 0.04402  0.00307  0.27202  Biso   1.000  H
  H59      1.0000 0.95604  0.00307  0.22801  Biso   1.000  H
  H60      1.0000 0.17326  0.13398  0.45092  Biso   1.000  H
  H61      1.0000 0.21961  0.10202  0.40129  Biso   1.000  H
  H62      1.0000 0.16615  0.17539  0.38089  Biso   1.000  H
  H63      1.0000 0.82680  0.13398  0.04912  Biso   1.000  H
  H64      1.0000 0.78038  0.10202  0.09870  Biso   1.000  H
  H65      1.0000 0.83389  0.17539  0.11909  Biso   1.000  H
  H66      1.0000 0.51543  0.22463  0.16331  Biso   1.000  H
  C64      1.0000 0.13486  0.55690  0.62951  Biso   1.000  C
  C65      1.0000 0.06388  0.51862  0.60753  Biso   1.000  C
  C66      1.0000 0.14127  0.63398  0.60916  Biso   1.000  C
  O13      1.0000 0.19937  0.51566  0.66937  Biso   1.000  O
  C67      1.0000 0.05653  0.43498  0.62828  Biso   1.000  C
  C68      1.0000 0.99972  0.55887  0.57022  Biso   1.000  C
  C69      1.0000 0.07725  0.67399  0.57175  Biso   1.000  C
  H67      1.0000 0.18995  0.65822  0.62143  Biso   1.000  H
  C70      1.0000 0.25154  0.55539  0.72044  Biso   1.000  C
  H68      1.0000 0.02097  0.40761  0.59071  Biso   1.000  H
  H69      1.0000 0.10736  0.40999  0.63774  Biso   1.000  H
  C71      1.0000 0.02667  0.42942  0.69084  Biso   1.000  C
  C72      1.0000 0.00465  0.63577  0.55284  Biso   1.000  C
  H70      1.0000 0.95156  0.53370  0.55621  Biso   1.000  H
  C73      1.0000 0.08354  0.75786  0.55227  Biso   1.000  C
  H71      1.0000 0.28547  0.58589  0.70122  Biso   1.000  H
  H72      1.0000 0.28239  0.51920  0.75274  Biso   1.000  H
  H73      1.0000 0.22355  0.58891  0.74313  Biso   1.000  H
  C74      1.0000 0.07915  0.42936  0.75591  Biso   1.000  C
  C75      1.0000 0.94686  0.42884  0.68512  Biso   1.000  C
  O14      1.0000 0.94257  0.68020  0.51675  Biso   1.000  O
  C76      1.0000 0.06175  0.81365  0.60150  Biso   1.000  C
  H74      1.0000 0.04935  0.76662  0.50673  Biso   1.000  H
  H75      1.0000 0.13696  0.76830  0.55120  Biso   1.000  H
  C77      1.0000 0.05325  0.42884  0.81494  Biso   1.000  C
  H76      1.0000 0.13264  0.42971  0.76020  Biso   1.000  H
  C78      1.0000 0.92096  0.42936  0.74415  Biso   1.000  C
  O15      1.0000 0.89751  0.42808  0.62015  Biso   1.000  O
  C79      1.0000 0.86723  0.64929  0.50699  Biso   1.000  C
  C80      1.0000 0.11624  0.83459  0.66171  Biso   1.000  C
  C81      1.0000 0.98642  0.84288  0.59000  Biso   1.000  C
  O16      1.0000 0.10264  0.42808  0.87986  Biso   1.000  O
  C82      1.0000 0.97350  0.42942  0.80922  Biso   1.000  C
  H77      1.0000 0.86745  0.42971  0.73981  Biso   1.000  H
  C83      1.0000 0.81558  0.43272  0.61218  Biso   1.000  C
  H78      1.0000 0.86122  0.60451  0.47801  Biso   1.000  H
  H79      1.0000 0.82897  0.68762  0.48583  Biso   1.000  H
  H80      1.0000 0.86003  0.63479  0.55033  Biso   1.000  H
  C84      1.0000 0.09755  0.88377  0.70807  Biso   1.000  C
  O17      1.0000 0.19118  0.80461  0.67091  Biso   1.000  O
  H81      1.0000 0.94877  0.83012  0.54972  Biso   1.000  H
  C85      1.0000 0.96595  0.89067  0.63697  Biso   1.000  C
  C86      1.0000 0.18459  0.43272  0.88788  Biso   1.000  C
  C87      1.0000 0.94357  0.43498  0.87173  Biso   1.000  C
  H82      1.0000 0.80332  0.47790  0.63579  Biso   1.000  H
  H83      1.0000 0.79738  0.38679  0.63073  Biso   1.000  H
  C88      1.0000 0.77675  0.43893  0.53612  Biso   1.000  C
  C89      1.0000 0.02187  0.91248  0.69652  Biso   1.000  C
  H84      1.0000 0.13587  0.89798  0.74742  Biso   1.000  H
  C90      1.0000 0.24045  0.80049  0.73863  Biso   1.000  C
  O18      1.0000 0.89162  0.92118  0.62736  Biso   1.000  O
  H85      1.0000 0.19677  0.47790  0.86422  Biso   1.000  H
  H86      1.0000 0.20278  0.38679  0.86933  Biso   1.000  H
  C91      1.0000 0.22340  0.43893  0.96389  Biso   1.000  C
  C92      1.0000 0.93629  0.51862  0.89253  Biso   1.000  C
  H87      1.0000 0.97918  0.40761  0.90930  Biso   1.000  H
  H88      1.0000 0.89280  0.40999  0.86233  Biso   1.000  H
  H89      1.0000 0.78755  0.39218  0.51379  Biso   1.000  H
  H90      1.0000 0.79903  0.48243  0.51782  Biso   1.000  H
  C93      1.0000 0.68776  0.44989  0.51992  Biso   1.000  C
  C94      1.0000 0.00008  0.96393  0.75003  Biso   1.000  C
  H91      1.0000 0.25388  0.85199  0.75581  Biso   1.000  H
  H92      1.0000 0.28749  0.77271  0.73894  Biso   1.000  H
  H93      1.0000 0.21363  0.77410  0.76700  Biso   1.000  H
  C95      1.0000 0.82837  0.87368  0.59613  Biso   1.000  C
  H94      1.0000 0.21260  0.39218  0.98622  Biso   1.000  H
  H95      1.0000 0.20108  0.48243  0.98224  Biso   1.000  H
  C96      1.0000 0.31240  0.44989  0.98014  Biso   1.000  C
  C97      1.0000 0.00037  0.55887  0.92979  Biso   1.000  C
  C98      1.0000 0.86529  0.55690  0.87050  Biso   1.000  C
  H96      1.0000 0.66532  0.45250  0.47070  Biso   1.000  H
  H97      1.0000 0.66481  0.40570  0.53679  Biso   1.000  H
  N3       1.0000 0.66898  0.52076  0.55120  Biso   1.000  N
  H98      1.0000 0.04406  0.99693  0.77201  Biso   1.000  H
  H99      1.0000 0.95603  0.99693  0.72800  Biso   1.000  H
  C99      1.0000 0.97828  0.91248  0.80349  Biso   1.000  C
  H100     1.0000 0.82684  0.86602  0.54911  Biso   1.000  H
  H101     1.0000 0.78044  0.89798  0.59874  Biso   1.000  H
  H102     1.0000 0.83395  0.82461  0.61913  Biso   1.000  H
  H103     1.0000 0.33528  0.40570  0.96322  Biso   1.000  H
  N4       1.0000 0.33117  0.52076  0.94881  Biso   1.000  N
  H104     1.0000 0.33466  0.45250  0.02931  Biso   1.000  H
  H105     1.0000 0.04859  0.53370  0.94380  Biso   1.000  H
  C100     1.0000 0.99550  0.63577  0.94717  Biso   1.000  C
  C101     1.0000 0.85888  0.63398  0.89085  Biso   1.000  C
  O19      1.0000 0.80074  0.51566  0.83069  Biso   1.000  O
  C102     1.0000 0.60623  0.52372  0.56965  Biso   1.000  C
  C103     1.0000 0.03416  0.89067  0.86309  Biso   1.000  C
  C104     1.0000 0.90256  0.88377  0.79199  Biso   1.000  C
  C105     1.0000 0.39388  0.52372  0.93041  Biso   1.000  C
  O20      1.0000 0.05754  0.68020  0.98331  Biso   1.000  O
  C106     1.0000 0.92286  0.67399  0.92831  Biso   1.000  C
  H106     1.0000 0.81016  0.65822  0.87863  Biso   1.000  H
  C107     1.0000 0.74857  0.55539  0.77962  Biso   1.000  C
  H107     1.0000 0.57525  0.47953  0.56562  Biso   1.000  H
  C108     1.0000 0.58155  0.59430  0.59695  Biso   1.000  C
  C109     1.0000 0.01367  0.84288  0.91001  Biso   1.000  C
  O21      1.0000 0.10848  0.92118  0.87265  Biso   1.000  O
  C110     1.0000 0.88386  0.83459  0.83835  Biso   1.000  C
  H108     1.0000 0.86424  0.89798  0.75264  Biso   1.000  H
  H109     1.0000 0.42484  0.47953  0.93439  Biso   1.000  H
  C111     1.0000 0.41856  0.59430  0.90311  Biso   1.000  C
  C112     1.0000 0.13287  0.64929  0.99302  Biso   1.000  C
  C113     1.0000 0.91655  0.75786  0.94773  Biso   1.000  C
  H110     1.0000 0.71468  0.58589  0.79879  Biso   1.000  H
  H111     1.0000 0.71778  0.51920  0.74732  Biso   1.000  H
  H112     1.0000 0.77656  0.58891  0.75693  Biso   1.000  H
  C114     1.0000 0.50945  0.59773  0.61131  Biso   1.000  C
  C115     1.0000 0.62946  0.66152  0.60763  Biso   1.000  C
  C116     1.0000 0.93835  0.81365  0.89851  Biso   1.000  C
  H113     1.0000 0.05140  0.83012  0.95034  Biso   1.000  H
  C117     1.0000 0.17180  0.87368  0.90393  Biso   1.000  C
  O22      1.0000 0.80897  0.80461  0.82910  Biso   1.000  O
  C118     1.0000 0.49070  0.59773  0.88870  Biso   1.000  C
  C119     1.0000 0.37065  0.66152  0.89243  Biso   1.000  C
  H114     1.0000 0.14008  0.63479  0.94973  Biso   1.000  H
  H115     1.0000 0.13877  0.60451  0.02200  Biso   1.000  H
  H116     1.0000 0.17108  0.68762  0.01423  Biso   1.000  H
  H117     1.0000 0.95076  0.76662  0.99333  Biso   1.000  H
  H118     1.0000 0.86319  0.76830  0.94881  Biso   1.000  H
  H119     1.0000 0.47715  0.55423  0.60380  Biso   1.000  H
  C120     1.0000 0.48535  0.66390  0.63630  Biso   1.000  C
  C121     1.0000 0.60435  0.72799  0.63232  Biso   1.000  C
  O23      1.0000 0.69884  0.66245  0.59393  Biso   1.000  O
  H120     1.0000 0.17325  0.86602  0.95090  Biso   1.000  H
  H121     1.0000 0.21967  0.89798  0.90132  Biso   1.000  H
  H122     1.0000 0.16616  0.82461  0.88093  Biso   1.000  H
  C122     1.0000 0.75966  0.80049  0.76143  Biso   1.000  C
  H123     1.0000 0.52300  0.55423  0.89621  Biso   1.000  H
  C123     1.0000 0.51474  0.66390  0.86371  Biso   1.000  C
  C124     1.0000 0.39574  0.72799  0.86769  Biso   1.000  C
  O24      1.0000 0.30127  0.66245  0.90613  Biso   1.000  O
  Br3      1.0000 0.38690  0.66999  0.65343  Biso   1.000  Br
  C125     1.0000 0.53224  0.73019  0.64683  Biso   1.000  C
  H124     1.0000 0.63585  0.77189  0.63942  Biso   1.000  H
  H125     1.0000 0.70906  0.61878  0.58279  Biso   1.000  H
  H126     1.0000 0.74627  0.85199  0.74420  Biso   1.000  H
  H127     1.0000 0.71268  0.77271  0.76112  Biso   1.000  H
  H128     1.0000 0.78646  0.77410  0.73301  Biso   1.000  H
  Br4      1.0000 0.61327  0.66999  0.84663  Biso   1.000  Br
  C126     1.0000 0.46786  0.73019  0.85323  Biso   1.000  C
  H129     1.0000 0.36426  0.77189  0.86064  Biso   1.000  H
  H130     1.0000 0.29109  0.61878  0.91722  Biso   1.000  H
  H131     1.0000 0.51547  0.77537  0.66329  Biso   1.000  H
  H132     1.0000 0.48468  0.77537  0.83672  Biso   1.000  H
  C127     1.0000 0.32837  0.37368  0.59613  Biso   1.000  C
  O25      1.0000 0.39162  0.42118  0.62736  Biso   1.000  O
  H133     1.0000 0.32684  0.36602  0.54911  Biso   1.000  H
  H134     1.0000 0.28044  0.39798  0.59874  Biso   1.000  H
  H135     1.0000 0.33395  0.32461  0.61913  Biso   1.000  H
  C128     1.0000 0.46595  0.39067  0.63697  Biso   1.000  C
  C129     1.0000 0.48642  0.34288  0.59000  Biso   1.000  C
  C130     1.0000 0.52187  0.41248  0.69652  Biso   1.000  C
  C131     1.0000 0.56175  0.31365  0.60150  Biso   1.000  C
  H136     1.0000 0.44877  0.33012  0.54972  Biso   1.000  H
  C132     1.0000 0.59755  0.38377  0.70807  Biso   1.000  C
  C133     1.0000 0.50008  0.46393  0.75003  Biso   1.000  C
  C134     1.0000 0.58354  0.25786  0.55227  Biso   1.000  C
  C135     1.0000 0.61624  0.33459  0.66171  Biso   1.000  C
  H137     1.0000 0.63587  0.39798  0.74742  Biso   1.000  H
  H138     1.0000 0.54406  0.49693  0.77201  Biso   1.000  H
  H139     1.0000 0.45603  0.49693  0.72800  Biso   1.000  H
  C136     1.0000 0.47828  0.41248  0.80349  Biso   1.000  C
  C137     1.0000 0.57725  0.17399  0.57175  Biso   1.000  C
  H140     1.0000 0.54935  0.26662  0.50673  Biso   1.000  H
  H141     1.0000 0.63696  0.26830  0.55120  Biso   1.000  H
  O26      1.0000 0.69118  0.30461  0.67091  Biso   1.000  O
  C138     1.0000 0.40256  0.38377  0.79199  Biso   1.000  C
  C139     1.0000 0.53416  0.39067  0.86309  Biso   1.000  C
  C140     1.0000 0.50465  0.13577  0.55284  Biso   1.000  C
  C141     1.0000 0.64127  0.13398  0.60916  Biso   1.000  C
  C142     1.0000 0.74045  0.30049  0.73863  Biso   1.000  C
  H142     1.0000 0.36424  0.39798  0.75264  Biso   1.000  H
  C143     1.0000 0.38386  0.33459  0.83835  Biso   1.000  C
  C144     1.0000 0.51367  0.34288  0.91001  Biso   1.000  C
  O27      1.0000 0.60848  0.42118  0.87265  Biso   1.000  O
  O28      1.0000 0.44257  0.18020  0.51675  Biso   1.000  O
  C145     1.0000 0.49972  0.05887  0.57022  Biso   1.000  C
  H143     1.0000 0.68995  0.15822  0.62143  Biso   1.000  H
  C146     1.0000 0.63486  0.05690  0.62951  Biso   1.000  C
  H144     1.0000 0.75388  0.35199  0.75581  Biso   1.000  H
  H145     1.0000 0.78749  0.27271  0.73894  Biso   1.000  H
  H146     1.0000 0.71363  0.27410  0.76700  Biso   1.000  H
  C147     1.0000 0.43835  0.31365  0.89851  Biso   1.000  C
  O29      1.0000 0.30897  0.30461  0.82910  Biso   1.000  O
  H147     1.0000 0.55140  0.33012  0.95034  Biso   1.000  H
  C148     1.0000 0.67180  0.37368  0.90393  Biso   1.000  C
  C149     1.0000 0.36723  0.14929  0.50699  Biso   1.000  C
  C150     1.0000 0.56388  0.01862  0.60753  Biso   1.000  C
  H148     1.0000 0.45156  0.03370  0.55621  Biso   1.000  H
  O30      1.0000 0.69937  0.01566  0.66937  Biso   1.000  O
  C151     1.0000 0.41655  0.25786  0.94773  Biso   1.000  C
  C152     1.0000 0.25966  0.30049  0.76143  Biso   1.000  C
  H149     1.0000 0.67325  0.36602  0.95090  Biso   1.000  H
  H150     1.0000 0.71967  0.39798  0.90132  Biso   1.000  H
  H151     1.0000 0.66616  0.32461  0.88093  Biso   1.000  H
  H152     1.0000 0.36122  0.10451  0.47801  Biso   1.000  H
  H153     1.0000 0.32897  0.18762  0.48583  Biso   1.000  H
  H154     1.0000 0.36003  0.13479  0.55033  Biso   1.000  H
  C153     1.0000 0.55653  0.93498  0.62828  Biso   1.000  C
  C154     1.0000 0.75154  0.05539  0.72044  Biso   1.000  C
  C155     1.0000 0.42286  0.17399  0.92831  Biso   1.000  C
  H155     1.0000 0.45076  0.26662  0.99333  Biso   1.000  H
  H156     1.0000 0.36319  0.26830  0.94881  Biso   1.000  H
  H157     1.0000 0.24627  0.35199  0.74420  Biso   1.000  H
  H158     1.0000 0.21268  0.27271  0.76112  Biso   1.000  H
  H159     1.0000 0.28646  0.27410  0.73301  Biso   1.000  H
  H160     1.0000 0.52097  0.90761  0.59071  Biso   1.000  H
  H161     1.0000 0.60736  0.90999  0.63774  Biso   1.000  H
  C156     1.0000 0.52667  0.92942  0.69084  Biso   1.000  C
  H162     1.0000 0.78547  0.08589  0.70122  Biso   1.000  H
  H163     1.0000 0.78239  0.01920  0.75274  Biso   1.000  H
  H164     1.0000 0.72355  0.08891  0.74313  Biso   1.000  H
  C157     1.0000 0.35888  0.13398  0.89085  Biso   1.000  C
  C158     1.0000 0.49550  0.13577  0.94717  Biso   1.000  C
  C159     1.0000 0.44686  0.92884  0.68512  Biso   1.000  C
  C160     1.0000 0.57915  0.92936  0.75591  Biso   1.000  C
  C161     1.0000 0.36529  0.05690  0.87050  Biso   1.000  C
  H165     1.0000 0.31016  0.15822  0.87863  Biso   1.000  H
  C162     1.0000 0.50037  0.05887  0.92979  Biso   1.000  C
  O31      1.0000 0.55754  0.18020  0.98331  Biso   1.000  O
  C163     1.0000 0.42096  0.92936  0.74415  Biso   1.000  C
  O32      1.0000 0.39751  0.92808  0.62015  Biso   1.000  O
  C164     1.0000 0.55325  0.92884  0.81494  Biso   1.000  C
  H166     1.0000 0.63264  0.92971  0.76020  Biso   1.000  H
  C165     1.0000 0.43629  0.01862  0.89253  Biso   1.000  C
  O33      1.0000 0.30074  0.01566  0.83069  Biso   1.000  O
  H167     1.0000 0.54859  0.03370  0.94380  Biso   1.000  H
  C166     1.0000 0.63287  0.14929  0.99302  Biso   1.000  C
  H168     1.0000 0.36745  0.92971  0.73981  Biso   1.000  H
  C167     1.0000 0.47350  0.92942  0.80922  Biso   1.000  C
  C168     1.0000 0.31558  0.93272  0.61218  Biso   1.000  C
  O34      1.0000 0.60264  0.92808  0.87986  Biso   1.000  O
  C169     1.0000 0.44357  0.93498  0.87173  Biso   1.000  C
  C170     1.0000 0.24857  0.05539  0.77962  Biso   1.000  C
  H169     1.0000 0.64008  0.13479  0.94973  Biso   1.000  H
  H170     1.0000 0.63877  0.10451  0.02200  Biso   1.000  H
  H171     1.0000 0.67108  0.18762  0.01423  Biso   1.000  H
  H172     1.0000 0.30332  0.97790  0.63579  Biso   1.000  H
  H173     1.0000 0.29738  0.88679  0.63073  Biso   1.000  H
  C171     1.0000 0.27675  0.93893  0.53612  Biso   1.000  C
  C172     1.0000 0.68459  0.93272  0.88788  Biso   1.000  C
  H174     1.0000 0.47918  0.90761  0.90930  Biso   1.000  H
  H175     1.0000 0.39280  0.90999  0.86233  Biso   1.000  H
  H176     1.0000 0.21468  0.08589  0.79879  Biso   1.000  H
  H177     1.0000 0.21778  0.01920  0.74732  Biso   1.000  H
  H178     1.0000 0.27656  0.08891  0.75693  Biso   1.000  H
  H179     1.0000 0.28755  0.89218  0.51379  Biso   1.000  H
  H180     1.0000 0.29903  0.98243  0.51782  Biso   1.000  H
  C173     1.0000 0.18776  0.94989  0.51992  Biso   1.000  C
  H181     1.0000 0.69677  0.97790  0.86422  Biso   1.000  H
  H182     1.0000 0.70278  0.88679  0.86933  Biso   1.000  H
  C174     1.0000 0.72340  0.93893  0.96389  Biso   1.000  C
  N5       1.0000 0.16898  0.02076  0.55120  Biso   1.000  N
  H183     1.0000 0.16532  0.95250  0.47070  Biso   1.000  H
  H184     1.0000 0.16481  0.90570  0.53679  Biso   1.000  H
  H185     1.0000 0.71260  0.89218  0.98622  Biso   1.000  H
  H186     1.0000 0.70108  0.98243  0.98224  Biso   1.000  H
  C175     1.0000 0.81240  0.94989  0.98014  Biso   1.000  C
  C176     1.0000 0.10623  0.02372  0.56965  Biso   1.000  C
  N6       1.0000 0.83117  0.02076  0.94881  Biso   1.000  N
  H187     1.0000 0.83528  0.90570  0.96322  Biso   1.000  H
  H188     1.0000 0.83466  0.95250  0.02931  Biso   1.000  H
  C177     1.0000 0.08155  0.09430  0.59695  Biso   1.000  C
  H189     1.0000 0.07525  0.97953  0.56562  Biso   1.000  H
  C178     1.0000 0.89388  0.02372  0.93041  Biso   1.000  C
  C179     1.0000 0.00945  0.09773  0.61131  Biso   1.000  C
  C180     1.0000 0.12946  0.16152  0.60763  Biso   1.000  C
  C181     1.0000 0.91856  0.09430  0.90311  Biso   1.000  C
  H190     1.0000 0.92484  0.97953  0.93439  Biso   1.000  H
  H191     1.0000 0.97715  0.05423  0.60380  Biso   1.000  H
  C182     1.0000 0.98535  0.16390  0.63630  Biso   1.000  C
  C183     1.0000 0.10435  0.22799  0.63232  Biso   1.000  C
  O35      1.0000 0.19884  0.16245  0.59393  Biso   1.000  O
  C184     1.0000 0.99070  0.09773  0.88870  Biso   1.000  C
  C185     1.0000 0.87065  0.16152  0.89243  Biso   1.000  C
  C186     1.0000 0.03224  0.23019  0.64683  Biso   1.000  C
  Br5      1.0000 0.88690  0.16999  0.65343  Biso   1.000  Br
  H192     1.0000 0.13585  0.27189  0.63942  Biso   1.000  H
  H193     1.0000 0.20906  0.11878  0.58279  Biso   1.000  H
  H194     1.0000 0.02300  0.05423  0.89621  Biso   1.000  H
  C187     1.0000 0.01474  0.16390  0.86371  Biso   1.000  C
  C188     1.0000 0.89574  0.22799  0.86769  Biso   1.000  C
  O36      1.0000 0.80127  0.16245  0.90613  Biso   1.000  O
  H195     1.0000 0.01547  0.27537  0.66329  Biso   1.000  H
  C189     1.0000 0.96786  0.23019  0.85323  Biso   1.000  C
  Br6      1.0000 0.11327  0.16999  0.84663  Biso   1.000  Br
  H196     1.0000 0.86426  0.27189  0.86064  Biso   1.000  H
  H197     1.0000 0.79109  0.11878  0.91722  Biso   1.000  H
  H198     1.0000 0.98468  0.27537  0.83672  Biso   1.000  H
  O37      1.0000 0.30893  0.69539  0.32912  Biso   1.000  O
  C190     1.0000 0.38380  0.66541  0.33832  Biso   1.000  C
  C191     1.0000 0.25960  0.69951  0.26139  Biso   1.000  C
  C192     1.0000 0.40250  0.61623  0.29196  Biso   1.000  C
  C193     1.0000 0.43836  0.68635  0.39853  Biso   1.000  C
  H199     1.0000 0.24622  0.64801  0.24422  Biso   1.000  H
  H200     1.0000 0.21262  0.72729  0.26108  Biso   1.000  H
  H201     1.0000 0.28641  0.72590  0.23302  Biso   1.000  H
  C194     1.0000 0.47824  0.58752  0.30351  Biso   1.000  C
  H202     1.0000 0.36424  0.60202  0.25260  Biso   1.000  H
  C195     1.0000 0.51363  0.65712  0.41003  Biso   1.000  C
  C196     1.0000 0.41657  0.74214  0.44775  Biso   1.000  C
  C197     1.0000 0.50002  0.53607  0.24999  Biso   1.000  C
  C198     1.0000 0.53410  0.60933  0.36305  Biso   1.000  C
  H203     1.0000 0.55134  0.66988  0.45030  Biso   1.000  H
  H204     1.0000 0.45076  0.73338  0.49329  Biso   1.000  H
  H205     1.0000 0.36314  0.73170  0.44882  Biso   1.000  H
  C199     1.0000 0.42280  0.82601  0.42827  Biso   1.000  C
  H206     1.0000 0.45604  0.50307  0.22801  Biso   1.000  H
  H207     1.0000 0.54402  0.50307  0.27202  Biso   1.000  H
  C200     1.0000 0.52182  0.58752  0.19653  Biso   1.000  C
  O38      1.0000 0.60843  0.57882  0.37266  Biso   1.000  O
  C201     1.0000 0.35884  0.86602  0.39086  Biso   1.000  C
  C202     1.0000 0.49546  0.86423  0.44719  Biso   1.000  C
  C203     1.0000 0.59749  0.61623  0.20803  Biso   1.000  C
  C204     1.0000 0.46589  0.60933  0.13693  Biso   1.000  C
  C205     1.0000 0.67174  0.62632  0.40389  Biso   1.000  C
  H208     1.0000 0.31015  0.84178  0.37859  Biso   1.000  H
  C206     1.0000 0.36525  0.94310  0.37052  Biso   1.000  C
  C207     1.0000 0.50033  0.94113  0.42981  Biso   1.000  C
  O39      1.0000 0.55748  0.81980  0.48327  Biso   1.000  O
  H209     1.0000 0.63581  0.60202  0.24739  Biso   1.000  H
  C208     1.0000 0.61618  0.66541  0.16167  Biso   1.000  C
  C209     1.0000 0.48643  0.65712  0.09001  Biso   1.000  C
  O40      1.0000 0.39163  0.57882  0.12737  Biso   1.000  O
  H210     1.0000 0.67326  0.63398  0.45092  Biso   1.000  H
  H211     1.0000 0.71961  0.60202  0.40129  Biso   1.000  H
  H212     1.0000 0.66615  0.67539  0.38089  Biso   1.000  H
  C210     1.0000 0.43622  0.98138  0.39250  Biso   1.000  C
  O41      1.0000 0.30068  0.98434  0.33065  Biso   1.000  O
  H213     1.0000 0.54855  0.96630  0.44381  Biso   1.000  H
  C211     1.0000 0.63288  0.85071  0.49303  Biso   1.000  C
  C212     1.0000 0.56170  0.68635  0.10151  Biso   1.000  C
  O42      1.0000 0.69114  0.69539  0.17092  Biso   1.000  O
  H214     1.0000 0.44871  0.66988  0.04968  Biso   1.000  H
  C213     1.0000 0.32830  0.62632  0.09609  Biso   1.000  C
  C214     1.0000 0.44352  0.06502  0.37174  Biso   1.000  C
  C215     1.0000 0.24851  0.94461  0.27959  Biso   1.000  C
  H215     1.0000 0.63883  0.89549  0.52202  Biso   1.000  H
  H216     1.0000 0.67113  0.81238  0.51420  Biso   1.000  H
  H217     1.0000 0.64002  0.86521  0.44969  Biso   1.000  H
  C216     1.0000 0.58349  0.74214  0.05229  Biso   1.000  C
  C217     1.0000 0.74044  0.69951  0.23859  Biso   1.000  C
  H218     1.0000 0.32680  0.63398  0.04912  Biso   1.000  H
  H219     1.0000 0.28038  0.60202  0.09870  Biso   1.000  H
  H220     1.0000 0.33389  0.67539  0.11909  Biso   1.000  H
  H221     1.0000 0.47913  0.09239  0.40931  Biso   1.000  H
  H222     1.0000 0.39274  0.09001  0.36229  Biso   1.000  H
  C218     1.0000 0.47344  0.07058  0.30918  Biso   1.000  C
  H223     1.0000 0.21463  0.91411  0.29881  Biso   1.000  H
  H224     1.0000 0.21772  0.98080  0.24728  Biso   1.000  H
  H225     1.0000 0.27650  0.91109  0.25689  Biso   1.000  H
  H226     1.0000 0.54929  0.73338  0.00670  Biso   1.000  H
  H227     1.0000 0.63692  0.73170  0.05122  Biso   1.000  H
  C219     1.0000 0.57718  0.82601  0.07171  Biso   1.000  C
  H228     1.0000 0.75384  0.64801  0.25582  Biso   1.000  H
  H229     1.0000 0.78743  0.72729  0.23890  Biso   1.000  H
  H230     1.0000 0.71365  0.72590  0.26701  Biso   1.000  H
  C220     1.0000 0.55325  0.07116  0.31491  Biso   1.000  C
  C221     1.0000 0.42090  0.07064  0.24412  Biso   1.000  C
  C222     1.0000 0.64122  0.86602  0.10918  Biso   1.000  C
  C223     1.0000 0.50460  0.86423  0.05285  Biso   1.000  C
  C224     1.0000 0.57909  0.07064  0.25587  Biso   1.000  C
  O43      1.0000 0.60260  0.07192  0.37987  Biso   1.000  O
  C225     1.0000 0.44680  0.07116  0.18508  Biso   1.000  C
  H231     1.0000 0.36741  0.07029  0.23982  Biso   1.000  H
  H232     1.0000 0.68989  0.84178  0.12139  Biso   1.000  H
  C226     1.0000 0.63481  0.94310  0.12952  Biso   1.000  C
  C227     1.0000 0.49973  0.94113  0.07023  Biso   1.000  C
  O44      1.0000 0.44256  0.81980  0.01671  Biso   1.000  O
  C228     1.0000 0.52661  0.07058  0.19080  Biso   1.000  C
  H233     1.0000 0.63265  0.07029  0.26022  Biso   1.000  H
  C229     1.0000 0.68453  0.06728  0.38784  Biso   1.000  C
  O45      1.0000 0.39746  0.07192  0.12017  Biso   1.000  O
  C230     1.0000 0.56382  0.98138  0.10749  Biso   1.000  C
  O46      1.0000 0.69937  0.98434  0.16934  Biso   1.000  O
  H234     1.0000 0.45151  0.96630  0.05622  Biso   1.000  H
  C231     1.0000 0.36718  0.85071  0.00700  Biso   1.000  C
  C232     1.0000 0.55654  0.06502  0.12829  Biso   1.000  C
  H235     1.0000 0.69673  0.02210  0.36423  Biso   1.000  H
  H236     1.0000 0.70272  0.11321  0.36929  Biso   1.000  H
  C233     1.0000 0.72336  0.06107  0.46390  Biso   1.000  C
  C234     1.0000 0.31552  0.06728  0.11214  Biso   1.000  C
  C235     1.0000 0.75154  0.94461  0.22040  Biso   1.000  C
  H237     1.0000 0.36003  0.86521  0.05030  Biso   1.000  H
  H238     1.0000 0.36134  0.89549  0.97802  Biso   1.000  H
  H239     1.0000 0.32903  0.81238  0.98579  Biso   1.000  H
  H240     1.0000 0.52093  0.09239  0.09073  Biso   1.000  H
  H241     1.0000 0.60730  0.09001  0.13770  Biso   1.000  H
  H242     1.0000 0.71254  0.10782  0.48619  Biso   1.000  H
  H243     1.0000 0.70102  0.01757  0.48220  Biso   1.000  H
  C236     1.0000 0.81234  0.05011  0.48010  Biso   1.000  C
  H244     1.0000 0.30334  0.02210  0.13581  Biso   1.000  H
  H245     1.0000 0.29732  0.11321  0.13070  Biso   1.000  H
  C237     1.0000 0.27671  0.06107  0.03614  Biso   1.000  C
  H246     1.0000 0.78541  0.91411  0.20118  Biso   1.000  H
  H247     1.0000 0.78233  0.98080  0.25270  Biso   1.000  H
  H248     1.0000 0.72349  0.91109  0.24309  Biso   1.000  H
  N7       1.0000 0.83113  0.97924  0.44882  Biso   1.000  N
  H249     1.0000 0.83473  0.04750  0.52932  Biso   1.000  H
  H250     1.0000 0.83522  0.09430  0.46318  Biso   1.000  H
  H251     1.0000 0.28750  0.10782  0.01380  Biso   1.000  H
  H252     1.0000 0.29902  0.01757  0.01779  Biso   1.000  H
  C238     1.0000 0.18770  0.05011  0.01988  Biso   1.000  C
  C239     1.0000 0.89382  0.97628  0.43037  Biso   1.000  C
  N8       1.0000 0.16893  0.97924  0.05122  Biso   1.000  N
  H253     1.0000 0.16544  0.04750  0.97071  Biso   1.000  H
  H254     1.0000 0.16482  0.09430  0.03680  Biso   1.000  H
  C240     1.0000 0.91855  0.90570  0.40308  Biso   1.000  C
  H255     1.0000 0.92486  0.02047  0.43441  Biso   1.000  H
  C241     1.0000 0.10622  0.97628  0.06962  Biso   1.000  C
  C242     1.0000 0.99064  0.90227  0.38866  Biso   1.000  C
  C243     1.0000 0.87065  0.83848  0.39239  Biso   1.000  C
  C244     1.0000 0.08149  0.90570  0.09691  Biso   1.000  C
  H256     1.0000 0.07519  0.02047  0.06558  Biso   1.000  H
  H257     1.0000 0.02296  0.94577  0.39623  Biso   1.000  H
  C245     1.0000 0.01476  0.83610  0.36372  Biso   1.000  C
  C246     1.0000 0.89575  0.77201  0.36771  Biso   1.000  C
  O47      1.0000 0.80121  0.83755  0.40609  Biso   1.000  O
  C247     1.0000 0.00941  0.90227  0.11132  Biso   1.000  C
  C248     1.0000 0.12940  0.83848  0.10759  Biso   1.000  C
  C249     1.0000 0.96780  0.76981  0.35319  Biso   1.000  C
  Br7      1.0000 0.11320  0.83001  0.34660  Biso   1.000  Br
  H258     1.0000 0.86425  0.72811  0.36060  Biso   1.000  H
  H259     1.0000 0.79103  0.88122  0.41718  Biso   1.000  H
  H260     1.0000 0.97711  0.94577  0.10381  Biso   1.000  H
  C250     1.0000 0.98531  0.83610  0.13632  Biso   1.000  C
  C251     1.0000 0.10429  0.77201  0.13228  Biso   1.000  C
  O48      1.0000 0.19883  0.83755  0.09389  Biso   1.000  O
  H261     1.0000 0.98463  0.72463  0.33673  Biso   1.000  H
  C252     1.0000 0.03218  0.76981  0.14680  Biso   1.000  C
  Br8      1.0000 0.88684  0.83001  0.15339  Biso   1.000  Br
  H262     1.0000 0.13579  0.72811  0.13938  Biso   1.000  H
  H263     1.0000 0.20902  0.88122  0.08280  Biso   1.000  H
  H264     1.0000 0.01543  0.72463  0.16331  Biso   1.000  H
  Ne1      1.0000 0.00002  0.34908  0.25000  Biso   1.000  Ne
  He1      1.0000 0.18013  0.28261  0.40274  Biso   1.000  He
  He2      1.0000 0.16487  0.16986  0.30240  Biso   1.000  He
  He3      1.0000 0.80654  0.13793  0.19232  Biso   1.000  He
  He4      1.0000 0.80337  0.27052  0.07691  Biso   1.000  He
  Ar1      1.0000 0.99964  0.32168  0.24966  Biso   1.000  Ar
  Ne2      1.0000 0.50006  0.15092  0.75002  Biso   1.000  Ne
  He5      1.0000 0.72367  0.24311  0.95539  Biso   1.000  He
  He6      1.0000 0.27690  0.24293  0.54520  Biso   1.000  He
  Ar2      1.0000 0.50346  0.17662  0.75114  Biso   1.000  Ar
  Ne3      1.0000 0.50002  0.84908  0.25000  Biso   1.000  Ne
  He7      1.0000 0.68013  0.78261  0.40274  Biso   1.000  He
  He8      1.0000 0.66487  0.66986  0.30240  Biso   1.000  He
  He9      1.0000 0.30654  0.63793  0.19232  Biso   1.000  He
  He10     1.0000 0.30337  0.77052  0.07691  Biso   1.000  He
  Ar3      1.0000 0.49964  0.82168  0.24966  Biso   1.000  Ar
  Ne4      1.0000 0.00006  0.65092  0.75002  Biso   1.000  Ne
  He11     1.0000 0.22367  0.74311  0.95539  Biso   1.000  He
  He12     1.0000 0.77689  0.74293  0.54520  Biso   1.000  He
  Ar4      1.0000 0.00347  0.67662  0.75114  Biso   1.000  Ar
