data_image0
_cell_length_a       18.885
_cell_length_b       17.349
_cell_length_c       20.564
_cell_angle_alpha    90
_cell_angle_beta     109.22
_cell_angle_gamma    90

_symmetry_space_group_name_H-M    "P 1"
_symmetry_int_tables_number       1

loop_
  _symmetry_equiv_pos_as_xyz
  'x, y, z'

loop_
  _atom_site_label
  _atom_site_occupancy
  _atom_site_fract_x
  _atom_site_fract_y
  _atom_site_fract_z
  _atom_site_thermal_displace_type
  _atom_site_B_iso_or_equiv
  _atom_site_type_symbol
  C1       1.0000 0.82583  0.53530  0.46426  Biso   1.000  C
  C2       1.0000 0.75627  0.54672  0.44289  Biso   1.000  C
  H1       1.0000 0.84215  0.52931  0.51391  Biso   1.000  H
  H2       1.0000 0.85053  0.58073  0.45427  Biso   1.000  H
  N1       1.0000 0.85066  0.46740  0.43440  Biso   1.000  N
  C3       1.0000 0.71567  0.60810  0.46596  Biso   1.000  C
  H3       1.0000 0.73385  0.49859  0.45021  Biso   1.000  H
  H4       1.0000 0.74266  0.55288  0.39340  Biso   1.000  H
  C4       1.0000 0.91196  0.46931  0.42327  Biso   1.000  C
  C5       1.0000 0.64763  0.63450  0.40777  Biso   1.000  C
  H5       1.0000 0.74896  0.65162  0.48306  Biso   1.000  H
  H6       1.0000 0.69997  0.58891  0.50340  Biso   1.000  H
  H7       1.0000 0.93974  0.51461  0.43311  Biso   1.000  H
  C6       1.0000 0.94195  0.40538  0.39629  Biso   1.000  C
  O1       1.0000 0.59614  0.57219  0.38439  Biso   1.000  O
  H8       1.0000 0.62336  0.67652  0.42337  Biso   1.000  H
  H9       1.0000 0.66308  0.65329  0.37007  Biso   1.000  H
  C7       1.0000 0.89874  0.33500  0.37929  Biso   1.000  C
  C8       1.0000 0.00888  0.40838  0.38609  Biso   1.000  C
  C9       1.0000 0.54738  0.57340  0.31749  Biso   1.000  C
  C10      1.0000 0.92778  0.27448  0.35411  Biso   1.000  C
  O2       1.0000 0.83178  0.32849  0.39000  Biso   1.000  O
  C11      1.0000 0.03847  0.34792  0.35859  Biso   1.000  C
  H10      1.0000 0.03685  0.45340  0.39809  Biso   1.000  H
  C12      1.0000 0.47118  0.57202  0.30508  Biso   1.000  C
  C13      1.0000 0.57499  0.57289  0.26259  Biso   1.000  C
  H11      1.0000 0.90107  0.22860  0.34458  Biso   1.000  H
  C14      1.0000 0.99354  0.27909  0.34257  Biso   1.000  C
  H12      1.0000 0.81255  0.37120  0.38748  Biso   1.000  H
  Br1      1.0000 0.12971  0.35322  0.34561  Biso   1.000  Br
  C15      1.0000 0.43975  0.56758  0.36497  Biso   1.000  C
  C16      1.0000 0.42500  0.57289  0.23741  Biso   1.000  C
  C17      1.0000 0.52879  0.57202  0.19487  Biso   1.000  C
  H13      1.0000 0.62657  0.57312  0.27192  Biso   1.000  H
  H14      1.0000 0.01044  0.23690  0.32398  Biso   1.000  H
  C18      1.0000 0.43318  0.48412  0.38609  Biso   1.000  C
  H15      1.0000 0.47256  0.59571  0.40406  Biso   1.000  H
  H16      1.0000 0.39077  0.59168  0.35138  Biso   1.000  H
  C19      1.0000 0.45261  0.57340  0.18251  Biso   1.000  C
  H17      1.0000 0.37337  0.57312  0.22809  Biso   1.000  H
  C20      1.0000 0.56017  0.56758  0.13498  Biso   1.000  C
  C21      1.0000 0.36787  0.44452  0.36431  Biso   1.000  C
  C22      1.0000 0.49706  0.44602  0.42780  Biso   1.000  C
  O3       1.0000 0.40380  0.57219  0.11562  Biso   1.000  O
  C23      1.0000 0.56681  0.48412  0.11392  Biso   1.000  C
  H18      1.0000 0.52741  0.59571  0.09589  Biso   1.000  H
  H19      1.0000 0.60920  0.59168  0.14858  Biso   1.000  H
  C24      1.0000 0.36234  0.37068  0.38449  Biso   1.000  C
  O4       1.0000 0.30499  0.48527  0.32228  Biso   1.000  O
  C25      1.0000 0.49224  0.36919  0.44670  Biso   1.000  C
  H20      1.0000 0.54275  0.47173  0.44300  Biso   1.000  H
  C26      1.0000 0.35229  0.63450  0.09218  Biso   1.000  C
  C27      1.0000 0.63207  0.44452  0.13570  Biso   1.000  C
  C28      1.0000 0.50287  0.44602  0.07220  Biso   1.000  C
  C29      1.0000 0.42337  0.33011  0.42549  Biso   1.000  C
  H21      1.0000 0.31566  0.34682  0.37007  Biso   1.000  H
  C30      1.0000 0.25569  0.44590  0.26852  Biso   1.000  C
  O5       1.0000 0.55336  0.32768  0.48780  Biso   1.000  O
  H22      1.0000 0.37656  0.67652  0.07658  Biso   1.000  H
  H23      1.0000 0.33689  0.65329  0.12988  Biso   1.000  H
  C31      1.0000 0.28430  0.60810  0.03399  Biso   1.000  C
  C32      1.0000 0.63759  0.37068  0.11551  Biso   1.000  C
  O6       1.0000 0.69498  0.48527  0.17767  Biso   1.000  O
  C33      1.0000 0.50770  0.36919  0.05330  Biso   1.000  C
  H24      1.0000 0.45718  0.47173  0.05701  Biso   1.000  H
  C34      1.0000 0.42044  0.24699  0.44480  Biso   1.000  C
  H25      1.0000 0.28320  0.41322  0.24761  Biso   1.000  H
  H26      1.0000 0.22618  0.48181  0.23509  Biso   1.000  H
  H27      1.0000 0.22327  0.41489  0.28531  Biso   1.000  H
  C35      1.0000 0.62446  0.35691  0.50016  Biso   1.000  C
  H28      1.0000 0.25101  0.65162  0.01689  Biso   1.000  H
  C36      1.0000 0.24372  0.54672  0.05711  Biso   1.000  C
  H29      1.0000 0.29995  0.58891  0.99655  Biso   1.000  H
  C37      1.0000 0.57662  0.33011  0.07452  Biso   1.000  C
  H30      1.0000 0.68426  0.34682  0.12988  Biso   1.000  H
  C38      1.0000 0.74430  0.44590  0.23149  Biso   1.000  C
  O7       1.0000 0.44658  0.32768  0.01221  Biso   1.000  O
  C39      1.0000 0.44027  0.19200  0.39670  Biso   1.000  C
  H31      1.0000 0.37036  0.23529  0.44511  Biso   1.000  H
  H32      1.0000 0.45487  0.23909  0.49120  Biso   1.000  H
  H33      1.0000 0.62885  0.37679  0.45819  Biso   1.000  H
  H34      1.0000 0.66074  0.31668  0.51746  Biso   1.000  H
  H35      1.0000 0.63337  0.39760  0.53358  Biso   1.000  H
  H36      1.0000 0.26609  0.49859  0.04980  Biso   1.000  H
  H37      1.0000 0.25728  0.55288  0.10660  Biso   1.000  H
  C40      1.0000 0.17409  0.53530  0.03569  Biso   1.000  C
  C41      1.0000 0.57949  0.24699  0.05521  Biso   1.000  C
  H38      1.0000 0.71679  0.41322  0.25240  Biso   1.000  H
  H39      1.0000 0.77375  0.48181  0.26491  Biso   1.000  H
  H40      1.0000 0.77667  0.41489  0.21470  Biso   1.000  H
  C42      1.0000 0.37544  0.35691  0.99974  Biso   1.000  C
  C43      1.0000 0.38585  0.16912  0.33469  Biso   1.000  C
  C44      1.0000 0.51269  0.16727  0.40890  Biso   1.000  C
  H41      1.0000 0.14939  0.58073  0.04568  Biso   1.000  H
  N2       1.0000 0.14928  0.46740  0.06561  Biso   1.000  N
  H42      1.0000 0.15772  0.52931  0.98604  Biso   1.000  H
  C45      1.0000 0.55967  0.19200  0.10331  Biso   1.000  C
  H43      1.0000 0.62958  0.23529  0.05490  Biso   1.000  H
  H44      1.0000 0.54512  0.23909  0.00881  Biso   1.000  H
  H45      1.0000 0.37109  0.37679  0.04182  Biso   1.000  H
  H46      1.0000 0.33911  0.31668  0.98244  Biso   1.000  H
  H47      1.0000 0.36655  0.39760  0.96637  Biso   1.000  H
  O8       1.0000 0.31447  0.19540  0.32450  Biso   1.000  O
  C46      1.0000 0.40645  0.12110  0.29009  Biso   1.000  C
  C47      1.0000 0.53236  0.12139  0.36261  Biso   1.000  C
  H48      1.0000 0.54956  0.18191  0.44959  Biso   1.000  H
  C48      1.0000 0.08801  0.46931  0.07668  Biso   1.000  C
  C49      1.0000 0.61409  0.16912  0.16531  Biso   1.000  C
  C50      1.0000 0.48730  0.16727  0.09110  Biso   1.000  C
  C51      1.0000 0.26459  0.19459  0.25729  Biso   1.000  C
  C52      1.0000 0.47917  0.09609  0.30137  Biso   1.000  C
  H49      1.0000 0.36925  0.10467  0.25029  Biso   1.000  H
  O9       1.0000 0.60446  0.09372  0.37450  Biso   1.000  O
  H50      1.0000 0.06020  0.51461  0.06690  Biso   1.000  H
  C53      1.0000 0.05799  0.40538  0.10372  Biso   1.000  C
  C54      1.0000 0.59349  0.12110  0.20991  Biso   1.000  C
  O10      1.0000 0.68547  0.19540  0.17551  Biso   1.000  O
  C55      1.0000 0.46757  0.12139  0.13740  Biso   1.000  C
  H51      1.0000 0.45043  0.18191  0.05042  Biso   1.000  H
  H52      1.0000 0.28789  0.21748  0.22701  Biso   1.000  H
  H53      1.0000 0.22045  0.22353  0.25528  Biso   1.000  H
  H54      1.0000 0.25076  0.14237  0.24339  Biso   1.000  H
  C56      1.0000 0.49999  0.04922  0.24998  Biso   1.000  C
  C57      1.0000 0.66376  0.14289  0.41539  Biso   1.000  C
  C58      1.0000 0.10120  0.33500  0.12071  Biso   1.000  C
  C59      1.0000 0.99111  0.40838  0.11392  Biso   1.000  C
  C60      1.0000 0.52080  0.09609  0.19858  Biso   1.000  C
  H55      1.0000 0.63067  0.10467  0.24967  Biso   1.000  H
  C61      1.0000 0.73540  0.19459  0.24272  Biso   1.000  C
  O11      1.0000 0.39548  0.09372  0.12550  Biso   1.000  O
  H56      1.0000 0.54188  0.01620  0.27408  Biso   1.000  H
  H57      1.0000 0.45809  0.01620  0.22588  Biso   1.000  H
  H58      1.0000 0.64595  0.19500  0.41241  Biso   1.000  H
  H59      1.0000 0.70536  0.14018  0.39850  Biso   1.000  H
  H60      1.0000 0.67946  0.12617  0.46246  Biso   1.000  H
  C62      1.0000 0.07221  0.27448  0.14590  Biso   1.000  C
  O12      1.0000 0.16821  0.32849  0.11000  Biso   1.000  O
  C63      1.0000 0.96147  0.34792  0.14142  Biso   1.000  C
  H61      1.0000 0.96309  0.45340  0.10192  Biso   1.000  H
  H62      1.0000 0.71205  0.21748  0.27300  Biso   1.000  H
  H63      1.0000 0.77947  0.22353  0.24467  Biso   1.000  H
  H64      1.0000 0.74916  0.14237  0.25657  Biso   1.000  H
  C64      1.0000 0.33618  0.14289  0.08461  Biso   1.000  C
  H65      1.0000 0.09885  0.22860  0.15537  Biso   1.000  H
  C65      1.0000 0.00638  0.27909  0.15738  Biso   1.000  C
  H66      1.0000 0.18737  0.37120  0.11247  Biso   1.000  H
  Br2      1.0000 0.87021  0.35322  0.15434  Biso   1.000  Br
  H67      1.0000 0.35399  0.19500  0.08760  Biso   1.000  H
  H68      1.0000 0.29458  0.14018  0.10150  Biso   1.000  H
  H69      1.0000 0.32051  0.12617  0.03749  Biso   1.000  H
  H70      1.0000 0.98948  0.23690  0.17597  Biso   1.000  H
  O13      1.0000 0.89542  0.40631  0.62546  Biso   1.000  O
  C66      1.0000 0.96754  0.37858  0.63741  Biso   1.000  C
  C67      1.0000 0.83613  0.35708  0.58457  Biso   1.000  C
  C68      1.0000 0.98727  0.33270  0.59111  Biso   1.000  C
  C69      1.0000 0.02071  0.40388  0.69859  Biso   1.000  C
  H71      1.0000 0.85395  0.30497  0.58761  Biso   1.000  H
  H72      1.0000 0.79453  0.35979  0.60146  Biso   1.000  H
  H73      1.0000 0.82047  0.37380  0.53750  Biso   1.000  H
  C70      1.0000 0.05962  0.30797  0.60326  Biso   1.000  C
  H74      1.0000 0.95032  0.31812  0.55037  Biso   1.000  H
  C71      1.0000 0.09343  0.37893  0.70986  Biso   1.000  C
  C72      1.0000 0.99995  0.45080  0.74998  Biso   1.000  C
  C73      1.0000 0.07944  0.25298  0.55516  Biso   1.000  C
  C74      1.0000 0.11404  0.33091  0.66527  Biso   1.000  C
  H75      1.0000 0.13063  0.39530  0.74967  Biso   1.000  H
  C75      1.0000 0.97914  0.40388  0.80138  Biso   1.000  C
  H76      1.0000 0.95800  0.48377  0.72588  Biso   1.000  H
  H77      1.0000 0.04184  0.48377  0.77408  Biso   1.000  H
  C76      1.0000 0.07651  0.16992  0.57447  Biso   1.000  C
  H78      1.0000 0.12955  0.26468  0.55490  Biso   1.000  H
  H79      1.0000 0.04501  0.26088  0.50876  Biso   1.000  H
  O14      1.0000 0.18542  0.30463  0.67546  Biso   1.000  O
  C77      1.0000 0.90642  0.37893  0.79010  Biso   1.000  C
  C78      1.0000 0.03231  0.37858  0.86256  Biso   1.000  C
  C79      1.0000 0.13754  0.12929  0.61547  Biso   1.000  C
  C80      1.0000 0.00766  0.13079  0.55331  Biso   1.000  C
  C81      1.0000 0.23530  0.30538  0.74267  Biso   1.000  C
  C82      1.0000 0.88581  0.33091  0.83470  Biso   1.000  C
  H80      1.0000 0.86922  0.39530  0.75029  Biso   1.000  H
  C83      1.0000 0.01258  0.33270  0.90886  Biso   1.000  C
  O15      1.0000 0.10441  0.40631  0.87446  Biso   1.000  O
  C84      1.0000 0.13203  0.05551  0.63571  Biso   1.000  C
  H81      1.0000 0.18422  0.15321  0.62989  Biso   1.000  H
  C85      1.0000 0.00284  0.05401  0.57221  Biso   1.000  C
  O16      1.0000 0.94652  0.17229  0.51216  Biso   1.000  O
  H82      1.0000 0.21200  0.28249  0.77295  Biso   1.000  H
  H83      1.0000 0.27944  0.27650  0.74468  Biso   1.000  H
  H84      1.0000 0.24912  0.35760  0.75657  Biso   1.000  H
  C86      1.0000 0.94022  0.30797  0.89665  Biso   1.000  C
  O17      1.0000 0.81441  0.30463  0.82445  Biso   1.000  O
  H85      1.0000 0.04953  0.31812  0.94959  Biso   1.000  H
  C87      1.0000 0.16372  0.35708  0.91540  Biso   1.000  C
  C88      1.0000 0.06675  0.01591  0.61387  Biso   1.000  C
  O18      1.0000 0.19495  0.01470  0.67768  Biso   1.000  O
  H86      1.0000 0.95713  0.02830  0.55696  Biso   1.000  H
  C89      1.0000 0.87548  0.14312  0.49980  Biso   1.000  C
  C90      1.0000 0.92039  0.25298  0.94475  Biso   1.000  C
  C91      1.0000 0.76455  0.30538  0.75730  Biso   1.000  C
  H87      1.0000 0.14590  0.30497  0.91236  Biso   1.000  H
  H88      1.0000 0.20530  0.35979  0.89845  Biso   1.000  H
  H89      1.0000 0.17938  0.37380  0.96247  Biso   1.000  H
  C92      1.0000 0.06013  0.93239  0.63498  Biso   1.000  C
  C93      1.0000 0.24421  0.05412  0.73149  Biso   1.000  C
  H90      1.0000 0.87104  0.12318  0.54177  Biso   1.000  H
  H91      1.0000 0.83915  0.18330  0.48250  Biso   1.000  H
  H92      1.0000 0.86657  0.10243  0.46638  Biso   1.000  H
  C94      1.0000 0.92334  0.16992  0.92549  Biso   1.000  C
  H93      1.0000 0.87030  0.26468  0.94506  Biso   1.000  H
  H94      1.0000 0.95482  0.26088  0.99115  Biso   1.000  H
  H95      1.0000 0.78783  0.28249  0.72696  Biso   1.000  H
  H96      1.0000 0.72041  0.27650  0.75529  Biso   1.000  H
  H97      1.0000 0.75073  0.35760  0.74339  Biso   1.000  H
  C95      1.0000 0.02876  0.92801  0.69488  Biso   1.000  C
  H98      1.0000 0.02732  0.90432  0.59590  Biso   1.000  H
  H99      1.0000 0.10911  0.90829  0.64858  Biso   1.000  H
  H100     1.0000 0.21676  0.08681  0.75240  Biso   1.000  H
  H101     1.0000 0.27370  0.01821  0.76487  Biso   1.000  H
  H102     1.0000 0.27662  0.08508  0.71465  Biso   1.000  H
  C96      1.0000 0.86231  0.12929  0.88450  Biso   1.000  C
  C97      1.0000 0.99219  0.13079  0.94666  Biso   1.000  C
  C98      1.0000 0.95250  0.92662  0.68247  Biso   1.000  C
  C99      1.0000 0.07495  0.92709  0.76260  Biso   1.000  C
  C100     1.0000 0.86781  0.05551  0.86426  Biso   1.000  C
  H103     1.0000 0.81562  0.15321  0.87008  Biso   1.000  H
  C101     1.0000 0.99701  0.05401  0.92776  Biso   1.000  C
  O19      1.0000 0.05331  0.17229  0.98775  Biso   1.000  O
  O20      1.0000 0.90374  0.92778  0.61557  Biso   1.000  O
  C102     1.0000 0.92490  0.92709  0.73736  Biso   1.000  C
  C103     1.0000 0.04735  0.92662  0.81750  Biso   1.000  C
  H104     1.0000 0.12652  0.92691  0.77187  Biso   1.000  H
  C104     1.0000 0.93309  0.01591  0.88609  Biso   1.000  C
  O21      1.0000 0.80490  0.01470  0.82229  Biso   1.000  O
  H105     1.0000 0.04270  0.02830  0.94295  Biso   1.000  H
  C105     1.0000 0.12449  0.14312  0.00022  Biso   1.000  C
  C106     1.0000 0.85226  0.86553  0.59219  Biso   1.000  C
  C107     1.0000 0.97115  0.92801  0.80509  Biso   1.000  C
  H106     1.0000 0.87333  0.92691  0.72810  Biso   1.000  H
  O22      1.0000 0.09611  0.92778  0.88440  Biso   1.000  O
  C108     1.0000 0.93972  0.93239  0.86498  Biso   1.000  C
  C109     1.0000 0.75564  0.05412  0.76847  Biso   1.000  C
  H107     1.0000 0.12881  0.12318  0.95819  Biso   1.000  H
  H108     1.0000 0.16077  0.18330  0.01752  Biso   1.000  H
  H109     1.0000 0.13335  0.10243  0.03364  Biso   1.000  H
  C110     1.0000 0.78427  0.89192  0.53399  Biso   1.000  C
  H110     1.0000 0.87653  0.82351  0.57658  Biso   1.000  H
  H111     1.0000 0.83686  0.84668  0.62989  Biso   1.000  H
  C111     1.0000 0.14759  0.86553  0.90778  Biso   1.000  C
  H112     1.0000 0.97253  0.90432  0.90407  Biso   1.000  H
  H113     1.0000 0.89073  0.90829  0.85138  Biso   1.000  H
  H114     1.0000 0.78314  0.08681  0.74756  Biso   1.000  H
  H115     1.0000 0.72615  0.01821  0.73510  Biso   1.000  H
  H116     1.0000 0.72321  0.08508  0.78526  Biso   1.000  H
  C112     1.0000 0.74361  0.95331  0.55707  Biso   1.000  C
  H117     1.0000 0.75098  0.84841  0.51690  Biso   1.000  H
  H118     1.0000 0.79994  0.91112  0.49661  Biso   1.000  H
  H119     1.0000 0.12332  0.82351  0.92338  Biso   1.000  H
  H120     1.0000 0.16299  0.84668  0.87008  Biso   1.000  H
  C113     1.0000 0.21558  0.89192  0.96597  Biso   1.000  C
  C114     1.0000 0.67405  0.96472  0.53569  Biso   1.000  C
  H121     1.0000 0.76606  0.00138  0.54980  Biso   1.000  H
  H122     1.0000 0.75722  0.94709  0.60656  Biso   1.000  H
  H123     1.0000 0.24893  0.84841  0.98307  Biso   1.000  H
  C115     1.0000 0.25622  0.95331  0.94285  Biso   1.000  C
  H124     1.0000 0.19998  0.91112  0.00341  Biso   1.000  H
  N3       1.0000 0.64923  0.03262  0.56556  Biso   1.000  N
  H125     1.0000 0.65775  0.97072  0.48610  Biso   1.000  H
  H126     1.0000 0.64935  0.91930  0.54569  Biso   1.000  H
  H127     1.0000 0.24261  0.94709  0.89336  Biso   1.000  H
  C116     1.0000 0.32580  0.96472  0.96427  Biso   1.000  C
  H128     1.0000 0.23379  0.00138  0.95016  Biso   1.000  H
  C117     1.0000 0.58792  0.03072  0.57669  Biso   1.000  C
  H129     1.0000 0.35049  0.91930  0.95428  Biso   1.000  H
  H130     1.0000 0.34217  0.97072  0.01392  Biso   1.000  H
  N4       1.0000 0.35060  0.03262  0.93435  Biso   1.000  N
  C118     1.0000 0.55794  0.09459  0.60367  Biso   1.000  C
  H131     1.0000 0.56016  0.98542  0.56690  Biso   1.000  H
  C119     1.0000 0.41193  0.03072  0.92328  Biso   1.000  C
  C120     1.0000 0.49106  0.09159  0.61387  Biso   1.000  C
  C121     1.0000 0.60115  0.16502  0.62067  Biso   1.000  C
  H132     1.0000 0.43968  0.98542  0.93306  Biso   1.000  H
  C122     1.0000 0.44191  0.09459  0.89629  Biso   1.000  C
  C123     1.0000 0.46141  0.15211  0.64137  Biso   1.000  C
  H133     1.0000 0.46304  0.04657  0.60187  Biso   1.000  H
  C124     1.0000 0.57212  0.22549  0.64590  Biso   1.000  C
  O23      1.0000 0.66810  0.17148  0.60996  Biso   1.000  O
  C125     1.0000 0.39870  0.16502  0.87930  Biso   1.000  C
  C126     1.0000 0.50884  0.09159  0.88609  Biso   1.000  C
  Br3      1.0000 0.37017  0.14675  0.65435  Biso   1.000  Br
  C127     1.0000 0.50634  0.22088  0.65739  Biso   1.000  C
  H134     1.0000 0.59882  0.27143  0.65538  Biso   1.000  H
  H135     1.0000 0.68733  0.12883  0.61248  Biso   1.000  H
  C128     1.0000 0.42773  0.22549  0.85406  Biso   1.000  C
  O24      1.0000 0.33173  0.17148  0.88996  Biso   1.000  O
  C129     1.0000 0.53843  0.15211  0.85859  Biso   1.000  C
  H136     1.0000 0.53681  0.04657  0.89809  Biso   1.000  H
  H137     1.0000 0.48944  0.26313  0.67598  Biso   1.000  H
  H138     1.0000 0.40103  0.27143  0.84459  Biso   1.000  H
  C130     1.0000 0.49351  0.22088  0.84258  Biso   1.000  C
  H139     1.0000 0.31252  0.12883  0.88748  Biso   1.000  H
  Br4      1.0000 0.62968  0.14675  0.84562  Biso   1.000  Br
  H140     1.0000 0.51041  0.26313  0.82399  Biso   1.000  H
  C131     1.0000 0.94024  0.69203  0.39670  Biso   1.000  C
  C132     1.0000 0.92047  0.74702  0.44480  Biso   1.000  C
  C133     1.0000 0.88587  0.66909  0.33469  Biso   1.000  C
  C134     1.0000 0.01266  0.66730  0.40890  Biso   1.000  C
  C135     1.0000 0.92334  0.83008  0.42549  Biso   1.000  C
  H141     1.0000 0.87038  0.73532  0.44511  Biso   1.000  H
  H142     1.0000 0.95484  0.73912  0.49120  Biso   1.000  H
  C136     1.0000 0.90648  0.62107  0.29009  Biso   1.000  C
  O25      1.0000 0.81449  0.69537  0.32450  Biso   1.000  O
  H143     1.0000 0.04954  0.68188  0.44959  Biso   1.000  H
  C137     1.0000 0.03239  0.62142  0.36261  Biso   1.000  C
  C138     1.0000 0.86237  0.87071  0.38449  Biso   1.000  C
  C139     1.0000 0.99227  0.86921  0.44670  Biso   1.000  C
  C140     1.0000 0.97915  0.59612  0.30137  Biso   1.000  C
  H144     1.0000 0.86928  0.60470  0.25029  Biso   1.000  H
  C141     1.0000 0.76456  0.69462  0.25729  Biso   1.000  C
  O26      1.0000 0.10449  0.59369  0.37450  Biso   1.000  O
  C142     1.0000 0.86789  0.94449  0.36431  Biso   1.000  C
  H145     1.0000 0.81563  0.84679  0.37007  Biso   1.000  H
  C143     1.0000 0.99704  0.94599  0.42780  Biso   1.000  C
  O27      1.0000 0.05333  0.82771  0.48780  Biso   1.000  O
  C144     1.0000 0.99996  0.54920  0.24998  Biso   1.000  C
  H146     1.0000 0.78786  0.71751  0.22701  Biso   1.000  H
  H147     1.0000 0.72047  0.72350  0.25528  Biso   1.000  H
  H148     1.0000 0.75079  0.64240  0.24339  Biso   1.000  H
  C145     1.0000 0.16378  0.64292  0.41539  Biso   1.000  C
  C146     1.0000 0.93316  0.98409  0.38609  Biso   1.000  C
  O28      1.0000 0.80496  0.98530  0.32228  Biso   1.000  O
  H149     1.0000 0.04278  0.97170  0.44300  Biso   1.000  H
  C147     1.0000 0.12443  0.85688  0.50016  Biso   1.000  C
  C148     1.0000 0.02077  0.59612  0.19858  Biso   1.000  C
  H150     1.0000 0.95807  0.51623  0.22588  Biso   1.000  H
  H151     1.0000 0.04185  0.51623  0.27408  Biso   1.000  H
  H152     1.0000 0.14598  0.69503  0.41241  Biso   1.000  H
  H153     1.0000 0.20538  0.64021  0.39850  Biso   1.000  H
  H154     1.0000 0.17944  0.62620  0.46246  Biso   1.000  H
  C149     1.0000 0.93978  0.06761  0.36497  Biso   1.000  C
  C150     1.0000 0.75567  0.94588  0.26852  Biso   1.000  C
  H155     1.0000 0.12887  0.87682  0.45819  Biso   1.000  H
  H156     1.0000 0.16076  0.81670  0.51746  Biso   1.000  H
  H157     1.0000 0.13334  0.89757  0.53358  Biso   1.000  H
  C151     1.0000 0.96760  0.62142  0.13740  Biso   1.000  C
  C152     1.0000 0.09346  0.62107  0.20991  Biso   1.000  C
  C153     1.0000 0.97116  0.07199  0.30508  Biso   1.000  C
  H158     1.0000 0.97254  0.09568  0.40406  Biso   1.000  H
  H159     1.0000 0.89074  0.09171  0.35138  Biso   1.000  H
  H160     1.0000 0.78317  0.91319  0.24761  Biso   1.000  H
  H161     1.0000 0.72616  0.98179  0.23509  Biso   1.000  H
  H162     1.0000 0.72329  0.91492  0.28531  Biso   1.000  H
  C154     1.0000 0.98728  0.66730  0.09110  Biso   1.000  C
  O29      1.0000 0.89550  0.59369  0.12550  Biso   1.000  O
  C155     1.0000 0.11406  0.66909  0.16531  Biso   1.000  C
  H163     1.0000 0.13064  0.60470  0.24967  Biso   1.000  H
  C156     1.0000 0.92498  0.07291  0.23741  Biso   1.000  C
  C157     1.0000 0.04735  0.07338  0.31749  Biso   1.000  C
  C158     1.0000 0.05970  0.69203  0.10331  Biso   1.000  C
  H164     1.0000 0.95040  0.68188  0.05042  Biso   1.000  H
  C159     1.0000 0.83621  0.64292  0.08461  Biso   1.000  C
  O30      1.0000 0.18550  0.69537  0.17551  Biso   1.000  O
  C160     1.0000 0.95258  0.07338  0.18251  Biso   1.000  C
  H165     1.0000 0.87340  0.07309  0.22809  Biso   1.000  H
  C161     1.0000 0.07496  0.07291  0.26259  Biso   1.000  C
  O31      1.0000 0.09617  0.07222  0.38439  Biso   1.000  O
  C162     1.0000 0.07952  0.74702  0.05521  Biso   1.000  C
  H166     1.0000 0.85401  0.69503  0.08760  Biso   1.000  H
  H167     1.0000 0.79461  0.64021  0.10150  Biso   1.000  H
  H168     1.0000 0.82048  0.62620  0.03749  Biso   1.000  H
  C163     1.0000 0.23538  0.69462  0.24272  Biso   1.000  C
  O32      1.0000 0.90382  0.07222  0.11562  Biso   1.000  O
  C164     1.0000 0.02876  0.07199  0.19487  Biso   1.000  C
  H169     1.0000 0.12660  0.07309  0.27192  Biso   1.000  H
  C165     1.0000 0.14765  0.13447  0.40777  Biso   1.000  C
  C166     1.0000 0.07659  0.83008  0.07452  Biso   1.000  C
  H170     1.0000 0.12961  0.73532  0.05490  Biso   1.000  H
  H171     1.0000 0.04509  0.73912  0.00881  Biso   1.000  H
  H172     1.0000 0.21208  0.71751  0.27300  Biso   1.000  H
  H173     1.0000 0.27945  0.72350  0.24467  Biso   1.000  H
  H174     1.0000 0.24919  0.64240  0.25657  Biso   1.000  H
  C167     1.0000 0.85227  0.13447  0.09218  Biso   1.000  C
  C168     1.0000 0.06019  0.06761  0.13498  Biso   1.000  C
  H175     1.0000 0.12333  0.17649  0.42337  Biso   1.000  H
  H176     1.0000 0.16305  0.15332  0.37007  Biso   1.000  H
  C169     1.0000 0.21564  0.10808  0.46596  Biso   1.000  C
  C170     1.0000 0.13757  0.87071  0.11551  Biso   1.000  C
  C171     1.0000 0.00772  0.86921  0.05330  Biso   1.000  C
  C172     1.0000 0.78428  0.10808  0.03399  Biso   1.000  C
  H177     1.0000 0.87659  0.17649  0.07658  Biso   1.000  H
  H178     1.0000 0.83687  0.15332  0.12988  Biso   1.000  H
  C173     1.0000 0.06678  0.98409  0.11392  Biso   1.000  C
  H179     1.0000 0.02738  0.09568  0.09589  Biso   1.000  H
  H180     1.0000 0.10918  0.09171  0.14858  Biso   1.000  H
  H181     1.0000 0.24893  0.15159  0.48306  Biso   1.000  H
  H182     1.0000 0.19994  0.08888  0.50340  Biso   1.000  H
  C174     1.0000 0.25625  0.04669  0.44289  Biso   1.000  C
  C175     1.0000 0.13210  0.94449  0.13570  Biso   1.000  C
  H183     1.0000 0.18429  0.84679  0.12988  Biso   1.000  H
  C176     1.0000 0.00290  0.94599  0.07220  Biso   1.000  C
  O33      1.0000 0.94660  0.82771  0.01221  Biso   1.000  O
  C177     1.0000 0.74369  0.04669  0.05711  Biso   1.000  C
  H184     1.0000 0.79993  0.08888  0.99655  Biso   1.000  H
  H185     1.0000 0.75098  0.15159  0.01689  Biso   1.000  H
  H186     1.0000 0.23387  0.99862  0.45021  Biso   1.000  H
  H187     1.0000 0.24269  0.05291  0.39340  Biso   1.000  H
  C178     1.0000 0.32586  0.03528  0.46426  Biso   1.000  C
  O34      1.0000 0.19496  0.98530  0.17767  Biso   1.000  O
  H188     1.0000 0.95721  0.97170  0.05701  Biso   1.000  H
  C179     1.0000 0.87542  0.85688  0.99974  Biso   1.000  C
  C180     1.0000 0.67411  0.03528  0.03569  Biso   1.000  C
  H189     1.0000 0.76612  0.99862  0.04980  Biso   1.000  H
  H190     1.0000 0.75730  0.05291  0.10660  Biso   1.000  H
  N5       1.0000 0.35068  0.96738  0.43440  Biso   1.000  N
  H191     1.0000 0.34217  0.02928  0.51391  Biso   1.000  H
  H192     1.0000 0.35056  0.08070  0.45427  Biso   1.000  H
  C181     1.0000 0.24427  0.94588  0.23149  Biso   1.000  C
  H193     1.0000 0.87112  0.87682  0.04182  Biso   1.000  H
  H194     1.0000 0.83914  0.81670  0.98244  Biso   1.000  H
  H195     1.0000 0.86653  0.89757  0.96637  Biso   1.000  H
  N6       1.0000 0.64931  0.96738  0.06561  Biso   1.000  N
  H196     1.0000 0.65775  0.02928  0.98604  Biso   1.000  H
  H197     1.0000 0.64936  0.08070  0.04568  Biso   1.000  H
  C182     1.0000 0.41193  0.96928  0.42327  Biso   1.000  C
  H198     1.0000 0.21677  0.91319  0.25240  Biso   1.000  H
  H199     1.0000 0.27378  0.98179  0.26491  Biso   1.000  H
  H200     1.0000 0.27670  0.91492  0.21470  Biso   1.000  H
  C183     1.0000 0.58799  0.96928  0.07668  Biso   1.000  C
  C184     1.0000 0.44197  0.90541  0.39629  Biso   1.000  C
  H201     1.0000 0.43977  0.01458  0.43311  Biso   1.000  H
  C185     1.0000 0.55802  0.90541  0.10372  Biso   1.000  C
  H202     1.0000 0.56017  0.01458  0.06690  Biso   1.000  H
  C186     1.0000 0.39876  0.83498  0.37929  Biso   1.000  C
  C187     1.0000 0.50885  0.90841  0.38609  Biso   1.000  C
  C188     1.0000 0.60117  0.83498  0.12071  Biso   1.000  C
  C189     1.0000 0.49109  0.90841  0.11392  Biso   1.000  C
  C190     1.0000 0.42776  0.77451  0.35411  Biso   1.000  C
  O35      1.0000 0.33175  0.82852  0.39000  Biso   1.000  O
  C191     1.0000 0.53844  0.84789  0.35859  Biso   1.000  C
  H203     1.0000 0.53688  0.95343  0.39809  Biso   1.000  H
  C192     1.0000 0.57218  0.77451  0.14590  Biso   1.000  C
  O36      1.0000 0.66818  0.82852  0.11000  Biso   1.000  O
  C193     1.0000 0.46150  0.84789  0.14142  Biso   1.000  C
  H204     1.0000 0.46312  0.95343  0.10192  Biso   1.000  H
  H205     1.0000 0.40104  0.72857  0.34458  Biso   1.000  H
  C194     1.0000 0.49357  0.77912  0.34257  Biso   1.000  C
  H206     1.0000 0.31258  0.87117  0.38748  Biso   1.000  H
  Br5      1.0000 0.62974  0.85325  0.34561  Biso   1.000  Br
  C195     1.0000 0.50640  0.77912  0.15738  Biso   1.000  C
  H207     1.0000 0.59888  0.72857  0.15537  Biso   1.000  H
  H208     1.0000 0.68739  0.87117  0.11247  Biso   1.000  H
  Br6      1.0000 0.37023  0.85325  0.15434  Biso   1.000  Br
  H209     1.0000 0.51047  0.73687  0.32398  Biso   1.000  H
  H210     1.0000 0.48945  0.73687  0.17597  Biso   1.000  H
  O37      1.0000 0.69492  0.51473  0.67768  Biso   1.000  O
  C196     1.0000 0.63206  0.55548  0.63571  Biso   1.000  C
  C197     1.0000 0.74424  0.55410  0.73149  Biso   1.000  C
  C198     1.0000 0.56673  0.51588  0.61387  Biso   1.000  C
  C199     1.0000 0.63751  0.62932  0.61547  Biso   1.000  C
  H211     1.0000 0.71673  0.58678  0.75240  Biso   1.000  H
  H212     1.0000 0.77373  0.51819  0.76487  Biso   1.000  H
  H213     1.0000 0.77664  0.58511  0.71465  Biso   1.000  H
  C200     1.0000 0.56016  0.43242  0.63498  Biso   1.000  C
  C201     1.0000 0.50287  0.55398  0.57221  Biso   1.000  C
  C202     1.0000 0.57654  0.66989  0.57447  Biso   1.000  C
  H214     1.0000 0.68425  0.65318  0.62989  Biso   1.000  H
  C203     1.0000 0.52873  0.42798  0.69488  Biso   1.000  C
  H215     1.0000 0.52735  0.40429  0.59590  Biso   1.000  H
  H216     1.0000 0.60914  0.40832  0.64858  Biso   1.000  H
  H217     1.0000 0.45716  0.52827  0.55696  Biso   1.000  H
  C204     1.0000 0.50763  0.63081  0.55331  Biso   1.000  C
  C205     1.0000 0.57941  0.75301  0.55516  Biso   1.000  C
  C206     1.0000 0.45253  0.42660  0.68247  Biso   1.000  C
  C207     1.0000 0.57493  0.42711  0.76260  Biso   1.000  C
  O38      1.0000 0.44655  0.67232  0.51216  Biso   1.000  O
  C208     1.0000 0.55964  0.80800  0.60326  Biso   1.000  C
  H218     1.0000 0.62957  0.76471  0.55490  Biso   1.000  H
  H219     1.0000 0.54504  0.76091  0.50876  Biso   1.000  H
  O39      1.0000 0.40371  0.42781  0.61557  Biso   1.000  O
  C209     1.0000 0.42492  0.42711  0.73736  Biso   1.000  C
  C210     1.0000 0.54732  0.42660  0.81750  Biso   1.000  C
  H220     1.0000 0.62654  0.42688  0.77187  Biso   1.000  H
  C211     1.0000 0.37545  0.64309  0.49980  Biso   1.000  C
  C212     1.0000 0.61401  0.83088  0.66527  Biso   1.000  C
  C213     1.0000 0.48724  0.83273  0.59111  Biso   1.000  C
  C214     1.0000 0.35223  0.36550  0.59219  Biso   1.000  C
  C215     1.0000 0.47112  0.42798  0.80509  Biso   1.000  C
  H221     1.0000 0.37331  0.42688  0.72810  Biso   1.000  H
  O40      1.0000 0.59613  0.42781  0.88440  Biso   1.000  O
  H222     1.0000 0.37107  0.62321  0.54177  Biso   1.000  H
  H223     1.0000 0.33917  0.68332  0.48250  Biso   1.000  H
  H224     1.0000 0.36654  0.60240  0.46638  Biso   1.000  H
  C216     1.0000 0.59341  0.87890  0.70986  Biso   1.000  C
  O41      1.0000 0.68544  0.80460  0.67546  Biso   1.000  O
  H225     1.0000 0.45035  0.81809  0.55037  Biso   1.000  H
  C217     1.0000 0.46757  0.87861  0.63741  Biso   1.000  C
  C218     1.0000 0.28424  0.39190  0.53399  Biso   1.000  C
  H226     1.0000 0.37656  0.32348  0.57658  Biso   1.000  H
  H227     1.0000 0.33683  0.34671  0.62989  Biso   1.000  H
  C219     1.0000 0.43969  0.43242  0.86498  Biso   1.000  C
  C220     1.0000 0.64762  0.36550  0.90778  Biso   1.000  C
  C221     1.0000 0.52074  0.90391  0.69859  Biso   1.000  C
  H228     1.0000 0.63061  0.89533  0.74967  Biso   1.000  H
  C222     1.0000 0.73532  0.80541  0.74267  Biso   1.000  C
  O42      1.0000 0.39545  0.90628  0.62546  Biso   1.000  O
  H229     1.0000 0.25095  0.34838  0.51690  Biso   1.000  H
  H230     1.0000 0.29996  0.41109  0.49661  Biso   1.000  H
  C223     1.0000 0.24364  0.45328  0.55707  Biso   1.000  C
  C224     1.0000 0.43312  0.51588  0.88609  Biso   1.000  C
  H231     1.0000 0.47250  0.40429  0.90407  Biso   1.000  H
  H232     1.0000 0.39071  0.40832  0.85138  Biso   1.000  H
  H233     1.0000 0.62329  0.32348  0.92338  Biso   1.000  H
  H234     1.0000 0.66302  0.34671  0.87008  Biso   1.000  H
  C225     1.0000 0.71561  0.39190  0.96597  Biso   1.000  C
  C226     1.0000 0.49992  0.95078  0.74998  Biso   1.000  C
  H235     1.0000 0.71202  0.78252  0.77295  Biso   1.000  H
  H236     1.0000 0.77941  0.77647  0.74468  Biso   1.000  H
  H237     1.0000 0.74910  0.85763  0.75657  Biso   1.000  H
  C227     1.0000 0.33615  0.85711  0.58457  Biso   1.000  C
  H238     1.0000 0.26603  0.50141  0.54980  Biso   1.000  H
  H239     1.0000 0.25725  0.44712  0.60656  Biso   1.000  H
  C228     1.0000 0.17408  0.46470  0.53569  Biso   1.000  C
  C229     1.0000 0.36779  0.55548  0.86426  Biso   1.000  C
  C230     1.0000 0.49698  0.55398  0.92776  Biso   1.000  C
  H240     1.0000 0.74890  0.34838  0.98307  Biso   1.000  H
  C231     1.0000 0.75619  0.45328  0.94285  Biso   1.000  C
  H241     1.0000 0.69996  0.41109  0.00341  Biso   1.000  H
  C232     1.0000 0.47911  0.90391  0.80138  Biso   1.000  C
  H242     1.0000 0.45803  0.98380  0.72588  Biso   1.000  H
  H243     1.0000 0.54182  0.98380  0.77408  Biso   1.000  H
  H244     1.0000 0.35392  0.80500  0.58761  Biso   1.000  H
  H245     1.0000 0.29455  0.85982  0.60146  Biso   1.000  H
  H246     1.0000 0.32045  0.87383  0.53750  Biso   1.000  H
  H247     1.0000 0.15778  0.47069  0.48610  Biso   1.000  H
  H248     1.0000 0.14933  0.41927  0.54569  Biso   1.000  H
  N7       1.0000 0.14925  0.53260  0.56556  Biso   1.000  N
  C233     1.0000 0.36233  0.62932  0.88450  Biso   1.000  C
  O43      1.0000 0.30493  0.51473  0.82229  Biso   1.000  O
  H249     1.0000 0.54267  0.52827  0.94295  Biso   1.000  H
  C234     1.0000 0.49222  0.63081  0.94666  Biso   1.000  C
  H250     1.0000 0.73382  0.50141  0.95016  Biso   1.000  H
  H251     1.0000 0.74258  0.44712  0.89336  Biso   1.000  H
  C235     1.0000 0.82583  0.46470  0.96427  Biso   1.000  C
  C236     1.0000 0.40644  0.87890  0.79010  Biso   1.000  C
  C237     1.0000 0.53228  0.87861  0.86256  Biso   1.000  C
  C238     1.0000 0.08795  0.53069  0.57669  Biso   1.000  C
  C239     1.0000 0.42331  0.66989  0.92549  Biso   1.000  C
  H252     1.0000 0.31560  0.65318  0.87008  Biso   1.000  H
  C240     1.0000 0.25561  0.55410  0.76847  Biso   1.000  C
  O44      1.0000 0.55328  0.67232  0.98775  Biso   1.000  O
  H253     1.0000 0.85052  0.41927  0.95428  Biso   1.000  H
  N8       1.0000 0.85058  0.53260  0.93435  Biso   1.000  N
  H254     1.0000 0.84219  0.47069  0.01392  Biso   1.000  H
  C241     1.0000 0.38584  0.83088  0.83470  Biso   1.000  C
  H255     1.0000 0.36924  0.89533  0.75029  Biso   1.000  H
  C242     1.0000 0.51261  0.83273  0.90886  Biso   1.000  C
  O45      1.0000 0.60438  0.90628  0.87446  Biso   1.000  O
  H256     1.0000 0.06014  0.48539  0.56690  Biso   1.000  H
  C243     1.0000 0.05796  0.59462  0.60367  Biso   1.000  C
  C244     1.0000 0.42042  0.75301  0.94475  Biso   1.000  C
  H257     1.0000 0.28312  0.58678  0.74756  Biso   1.000  H
  H258     1.0000 0.22612  0.51819  0.73510  Biso   1.000  H
  H259     1.0000 0.22324  0.58511  0.78526  Biso   1.000  H
  C245     1.0000 0.62447  0.64309  0.00022  Biso   1.000  C
  C246     1.0000 0.91190  0.53069  0.92328  Biso   1.000  C
  C247     1.0000 0.44019  0.80800  0.89665  Biso   1.000  C
  O46      1.0000 0.31439  0.80460  0.82445  Biso   1.000  O
  H260     1.0000 0.54950  0.81809  0.94959  Biso   1.000  H
  C248     1.0000 0.66369  0.85711  0.91540  Biso   1.000  C
  C249     1.0000 0.10112  0.66500  0.62067  Biso   1.000  C
  C250     1.0000 0.99103  0.59162  0.61387  Biso   1.000  C
  H261     1.0000 0.37028  0.76471  0.94506  Biso   1.000  H
  H262     1.0000 0.45479  0.76091  0.99115  Biso   1.000  H
  H263     1.0000 0.62884  0.62321  0.95819  Biso   1.000  H
  H264     1.0000 0.66075  0.68332  0.01752  Biso   1.000  H
  H265     1.0000 0.63338  0.60240  0.03364  Biso   1.000  H
  H266     1.0000 0.93971  0.48539  0.93306  Biso   1.000  H
  C251     1.0000 0.94194  0.59462  0.89629  Biso   1.000  C
  C252     1.0000 0.26453  0.80541  0.75730  Biso   1.000  C
  H267     1.0000 0.64593  0.80500  0.91236  Biso   1.000  H
  H268     1.0000 0.70528  0.85982  0.89845  Biso   1.000  H
  H269     1.0000 0.67940  0.87383  0.96247  Biso   1.000  H
  C253     1.0000 0.07215  0.72552  0.64590  Biso   1.000  C
  O47      1.0000 0.16813  0.67151  0.60996  Biso   1.000  O
  C254     1.0000 0.96144  0.65208  0.64137  Biso   1.000  C
  H270     1.0000 0.96306  0.54660  0.60187  Biso   1.000  H
  C255     1.0000 0.89873  0.66500  0.87930  Biso   1.000  C
  C256     1.0000 0.00882  0.59162  0.88609  Biso   1.000  C
  H271     1.0000 0.28781  0.78252  0.72696  Biso   1.000  H
  H272     1.0000 0.22044  0.77647  0.75529  Biso   1.000  H
  H273     1.0000 0.25075  0.85763  0.74339  Biso   1.000  H
  H274     1.0000 0.09884  0.77140  0.65538  Biso   1.000  H
  C257     1.0000 0.00631  0.72091  0.65739  Biso   1.000  C
  H275     1.0000 0.18736  0.62880  0.61248  Biso   1.000  H
  Br7      1.0000 0.87014  0.64678  0.65435  Biso   1.000  Br
  C258     1.0000 0.92770  0.72552  0.85406  Biso   1.000  C
  O48      1.0000 0.83170  0.67151  0.88996  Biso   1.000  O
  C259     1.0000 0.03841  0.65208  0.85859  Biso   1.000  C
  H276     1.0000 0.03684  0.54660  0.89809  Biso   1.000  H
  H277     1.0000 0.98941  0.76310  0.67598  Biso   1.000  H
  H278     1.0000 0.90101  0.77140  0.84459  Biso   1.000  H
  C260     1.0000 0.99353  0.72091  0.84258  Biso   1.000  C
  H279     1.0000 0.81249  0.62880  0.88748  Biso   1.000  H
  Br8      1.0000 0.12970  0.64678  0.84562  Biso   1.000  Br
  H280     1.0000 0.01043  0.76310  0.82399  Biso   1.000  H
