data_image0
_cell_length_a       11.691
_cell_length_b       12.746
_cell_length_c       13.044
_cell_angle_alpha    112.77
_cell_angle_beta     99.53
_cell_angle_gamma    113.42

_symmetry_space_group_name_H-M    "P 1"
_symmetry_int_tables_number       1

loop_
  _symmetry_equiv_pos_as_xyz
  'x, y, z'

loop_
  _atom_site_label
  _atom_site_occupancy
  _atom_site_fract_x
  _atom_site_fract_y
  _atom_site_fract_z
  _atom_site_thermal_displace_type
  _atom_site_B_iso_or_equiv
  _atom_site_type_symbol
  C1       1.0000 0.38397  0.32676  0.43555  Biso   1.000  C
  C2       1.0000 0.28924  0.26687  0.32161  Biso   1.000  C
  C3       1.0000 0.51703  0.42182  0.46240  Biso   1.000  C
  H1       1.0000 0.36058  0.30508  0.49311  Biso   1.000  H
  C4       1.0000 0.32550  0.29811  0.23623  Biso   1.000  C
  C5       1.0000 0.14864  0.15993  0.28965  Biso   1.000  C
  C6       1.0000 0.55531  0.45447  0.38051  Biso   1.000  C
  H2       1.0000 0.58175  0.46416  0.53980  Biso   1.000  H
  C7       1.0000 0.45585  0.39026  0.26541  Biso   1.000  C
  H3       1.0000 0.26079  0.25619  0.15883  Biso   1.000  H
  N1       1.0000 0.10095  0.19994  0.39093  Biso   1.000  N
  C8       1.0000 0.13991  0.03170  0.27322  Biso   1.000  C
  H4       1.0000 0.08628  0.14275  0.21603  Biso   1.000  H
  H5       1.0000 0.64445  0.51736  0.40018  Biso   1.000  H
  O1       1.0000 0.50560  0.42284  0.18604  Biso   1.000  O
  C9       1.0000 0.09885  0.12835  0.43546  Biso   1.000  C
  O2       1.0000 0.12799  0.03227  0.38285  Biso   1.000  O
  H6       1.0000 0.22098  0.03020  0.26460  Biso   1.000  H
  H7       1.0000 0.06107  0.95521  0.20229  Biso   1.000  H
  C10      1.0000 0.41432  0.38563  0.07461  Biso   1.000  C
  C11      1.0000 0.07486  0.14206  0.54707  Biso   1.000  C
  C12      1.0000 0.33511  0.45514  0.08611  Biso   1.000  C
  H8       1.0000 0.35125  0.29017  0.03259  Biso   1.000  H
  H9       1.0000 0.46519  0.40379  0.02496  Biso   1.000  H
  H10      1.0000 0.16024  0.17820  0.61055  Biso   1.000  H
  H11      1.0000 0.01313  0.05426  0.53279  Biso   1.000  H
  C13      1.0000 0.01616  0.23017  0.59079  Biso   1.000  C
  C14      1.0000 0.19727  0.38664  0.00997  Biso   1.000  C
  C15      1.0000 0.39892  0.59156  0.16619  Biso   1.000  C
  C16      1.0000 0.10143  0.36182  0.68381  Biso   1.000  C
  C17      1.0000 0.88087  0.18284  0.53665  Biso   1.000  C
  C18      1.0000 0.12321  0.44963  0.02343  Biso   1.000  C
  C19      1.0000 0.14171  0.24697  0.90905  Biso   1.000  C
  C20      1.0000 0.32464  0.65645  0.17769  Biso   1.000  C
  C21      1.0000 0.54983  0.67146  0.23587  Biso   1.000  C
  C22      1.0000 0.04695  0.44487  0.72054  Biso   1.000  C
  C23      1.0000 0.25108  0.41754  0.74047  Biso   1.000  C
  C24      1.0000 0.82583  0.26230  0.57508  Biso   1.000  C
  C25      1.0000 0.79099  0.04125  0.42945  Biso   1.000  C
  C26      1.0000 0.18573  0.58580  0.10541  Biso   1.000  C
  C27      1.0000 0.97410  0.37759  0.94505  Biso   1.000  C
  H12      1.0000 0.04705  0.20903  0.86388  Biso   1.000  H
  H13      1.0000 0.15148  0.19380  0.94263  Biso   1.000  H
  H14      1.0000 0.19086  0.24893  0.85607  Biso   1.000  H
  C28      1.0000 0.39532  0.80415  0.26056  Biso   1.000  C
  H15      1.0000 0.58648  0.61316  0.21818  Biso   1.000  H
  H16      1.0000 0.56849  0.71567  0.32117  Biso   1.000  H
  H17      1.0000 0.59129  0.73690  0.21279  Biso   1.000  H
  C29      1.0000 0.14297  0.58804  0.82298  Biso   1.000  C
  C30      1.0000 0.90798  0.39379  0.66595  Biso   1.000  C
  H18      1.0000 0.27230  0.34870  0.70518  Biso   1.000  H
  H19      1.0000 0.27698  0.45062  0.82621  Biso   1.000  H
  H20      1.0000 0.29995  0.48905  0.72655  Biso   1.000  H
  C31      1.0000 0.67491  0.20252  0.51322  Biso   1.000  C
  H21      1.0000 0.79170  0.97904  0.45468  Biso   1.000  H
  H22      1.0000 0.69971  0.02343  0.40081  Biso   1.000  H
  H23      1.0000 0.82518  0.03214  0.36552  Biso   1.000  H
  C32      1.0000 0.10924  0.65905  0.11313  Biso   1.000  C
  H24      1.0000 0.96215  0.42142  0.90025  Biso   1.000  H
  H25      1.0000 0.94614  0.28685  0.88660  Biso   1.000  H
  O3       1.0000 0.88838  0.37412  0.01284  Biso   1.000  O
  O4       1.0000 0.46238  0.84084  0.38285  Biso   1.000  O
  H26      1.0000 0.46158  0.84907  0.23282  Biso   1.000  H
  H27      1.0000 0.32938  0.83325  0.25814  Biso   1.000  H
  C33      1.0000 0.24287  0.67209  0.79021  Biso   1.000  C
  H28      1.0000 0.08943  0.62817  0.84929  Biso   1.000  H
  H29      1.0000 0.19157  0.58707  0.89113  Biso   1.000  H
  C34      1.0000 0.84757  0.48205  0.70419  Biso   1.000  C
  C35      1.0000 0.64227  0.19487  0.39291  Biso   1.000  C
  H30      1.0000 0.62641  0.11368  0.50218  Biso   1.000  H
  H31      1.0000 0.64463  0.25658  0.56422  Biso   1.000  H
  H32      1.0000 0.16833  0.75112  0.17445  Biso   1.000  H
  H33      1.0000 0.03301  0.61995  0.13342  Biso   1.000  H
  H34      1.0000 0.07743  0.65278  0.03618  Biso   1.000  H
  C36      1.0000 0.84240  0.27785  0.04346  Biso   1.000  C
  C37      1.0000 0.39209  0.84984  0.45962  Biso   1.000  C
  O5       1.0000 0.34808  0.78196  0.88529  Biso   1.000  O
  N2       1.0000 0.23901  0.64769  0.68390  Biso   1.000  N
  H35      1.0000 0.91780  0.57008  0.76767  Biso   1.000  H
  H36      1.0000 0.77909  0.44568  0.73320  Biso   1.000  H
  H37      1.0000 0.80731  0.48673  0.63596  Biso   1.000  H
  O6       1.0000 0.50952  0.10702  0.31748  Biso   1.000  O
  N3       1.0000 0.72052  0.25889  0.35699  Biso   1.000  N
  C38      1.0000 0.88500  0.18724  0.02640  Biso   1.000  C
  C39      1.0000 0.75622  0.28160  0.10433  Biso   1.000  C
  C40      1.0000 0.31418  0.90870  0.46420  Biso   1.000  C
  C41      1.0000 0.41159  0.80368  0.53638  Biso   1.000  C
  C42      1.0000 0.42168  0.85727  0.83618  Biso   1.000  C
  C43      1.0000 0.37041  0.76006  0.70195  Biso   1.000  C
  C44      1.0000 0.50463  0.10327  0.20301  Biso   1.000  C
  C45      1.0000 0.63964  0.21965  0.23488  Biso   1.000  C
  H38      1.0000 0.94683  0.18653  0.98860  Biso   1.000  H
  C46      1.0000 0.83471  0.09627  0.06617  Biso   1.000  C
  C47      1.0000 0.71140  0.19713  0.14922  Biso   1.000  C
  H39      1.0000 0.72731  0.34290  0.11520  Biso   1.000  H
  H40      1.0000 0.30323  0.94180  0.41248  Biso   1.000  H
  C48      1.0000 0.25283  0.91754  0.54752  Biso   1.000  C
  C49      1.0000 0.35075  0.81415  0.62096  Biso   1.000  C
  H41      1.0000 0.46570  0.76493  0.53216  Biso   1.000  H
  H42      1.0000 0.51859  0.89413  0.87425  Biso   1.000  H
  H43      1.0000 0.40491  0.92986  0.84875  Biso   1.000  H
  H44      1.0000 0.43342  0.72762  0.68713  Biso   1.000  H
  H45      1.0000 0.43024  0.11329  0.17041  Biso   1.000  H
  H46      1.0000 0.49344  0.02010  0.14402  Biso   1.000  H
  H47      1.0000 0.62503  0.29280  0.24072  Biso   1.000  H
  H48      1.0000 0.85838  0.03079  0.05019  Biso   1.000  H
  C50      1.0000 0.75029  0.10279  0.12866  Biso   1.000  C
  H49      1.0000 0.19909  0.95651  0.55138  Biso   1.000  H
  C51      1.0000 0.26909  0.87048  0.62419  Biso   1.000  C
  H50      1.0000 0.71935  0.04366  0.15731  Biso   1.000  H
  H51      1.0000 0.22528  0.87598  0.67878  Biso   1.000  H
  Ne1      1.0000 0.11837  0.42078  0.37093  Biso   1.000  Ne
  He1      1.0000 0.37649  0.52815  0.60352  Biso   1.000  He
  He2      1.0000 0.95421  0.56693  0.40631  Biso   1.000  He
  He3      1.0000 0.92857  0.11874  0.24308  Biso   1.000  He
  Ar1      1.0000 0.09936  0.46725  0.35718  Biso   1.000  Ar
