data_image0
_cell_length_a       13.738
_cell_length_b       22.251
_cell_length_c       27.184
_cell_angle_alpha    90
_cell_angle_beta     98.5
_cell_angle_gamma    90

_symmetry_space_group_name_H-M    "P 1"
_symmetry_int_tables_number       1

loop_
  _symmetry_equiv_pos_as_xyz
  'x, y, z'

loop_
  _atom_site_label
  _atom_site_occupancy
  _atom_site_fract_x
  _atom_site_fract_y
  _atom_site_fract_z
  _atom_site_thermal_displace_type
  _atom_site_B_iso_or_equiv
  _atom_site_type_symbol
  C1       1.0000 0.55943  0.56699  0.46029  Biso   1.000  C
  C2       1.0000 0.56686  0.50928  0.42871  Biso   1.000  C
  N1       1.0000 0.48624  0.60280  0.43031  Biso   1.000  N
  N2       1.0000 0.65894  0.59089  0.46601  Biso   1.000  N
  H1       1.0000 0.53924  0.55719  0.49328  Biso   1.000  H
  N3       1.0000 0.52108  0.52919  0.37969  Biso   1.000  N
  N4       1.0000 0.67043  0.50011  0.43388  Biso   1.000  N
  H2       1.0000 0.53169  0.47441  0.44109  Biso   1.000  H
  C3       1.0000 0.46578  0.58132  0.38199  Biso   1.000  C
  C4       1.0000 0.44914  0.65930  0.44481  Biso   1.000  C
  C5       1.0000 0.72404  0.54789  0.45441  Biso   1.000  C
  C6       1.0000 0.69203  0.63350  0.50500  Biso   1.000  C
  C7       1.0000 0.48469  0.48542  0.34089  Biso   1.000  C
  C8       1.0000 0.71414  0.44820  0.41361  Biso   1.000  C
  O1       1.0000 0.40952  0.60330  0.34919  Biso   1.000  O
  N5       1.0000 0.51463  0.70900  0.44299  Biso   1.000  N
  H3       1.0000 0.43384  0.65561  0.47911  Biso   1.000  H
  H4       1.0000 0.38672  0.66819  0.42279  Biso   1.000  H
  O2       1.0000 0.81433  0.55238  0.46073  Biso   1.000  O
  N6       1.0000 0.67915  0.69588  0.48859  Biso   1.000  N
  H5       1.0000 0.65507  0.62689  0.53319  Biso   1.000  H
  H6       1.0000 0.76267  0.62631  0.51731  Biso   1.000  H
  N7       1.0000 0.55847  0.46991  0.30991  Biso   1.000  N
  H7       1.0000 0.42623  0.50218  0.31969  Biso   1.000  H
  H8       1.0000 0.46395  0.44838  0.35681  Biso   1.000  H
  N8       1.0000 0.71609  0.45171  0.35979  Biso   1.000  N
  H9       1.0000 0.78242  0.44349  0.43079  Biso   1.000  H
  H10      1.0000 0.67688  0.41189  0.42060  Biso   1.000  H
  C9       1.0000 0.49643  0.75282  0.40840  Biso   1.000  C
  C10      1.0000 0.58719  0.72761  0.48450  Biso   1.000  C
  C11      1.0000 0.75808  0.73318  0.48469  Biso   1.000  C
  C12      1.0000 0.54926  0.48510  0.26051  Biso   1.000  C
  C13      1.0000 0.63753  0.42839  0.32490  Biso   1.000  C
  C14      1.0000 0.80320  0.45360  0.34130  Biso   1.000  C
  O3       1.0000 0.43098  0.75129  0.37228  Biso   1.000  O
  N9       1.0000 0.55719  0.79929  0.42101  Biso   1.000  N
  H11      1.0000 0.55956  0.72680  0.51649  Biso   1.000  H
  C15      1.0000 0.61398  0.79210  0.47059  Biso   1.000  C
  N10      1.0000 0.71747  0.78868  0.47301  Biso   1.000  N
  O4       1.0000 0.84508  0.71920  0.49071  Biso   1.000  O
  O5       1.0000 0.48436  0.51580  0.23820  Biso   1.000  O
  N11      1.0000 0.62510  0.46079  0.24180  Biso   1.000  N
  C16      1.0000 0.68384  0.42119  0.27640  Biso   1.000  C
  H12      1.0000 0.61289  0.38920  0.33620  Biso   1.000  H
  N12      1.0000 0.78474  0.44191  0.29138  Biso   1.000  N
  O6       1.0000 0.88609  0.46479  0.36414  Biso   1.000  O
  C17      1.0000 0.53898  0.85821  0.39810  Biso   1.000  C
  H13      1.0000 0.59455  0.82230  0.49451  Biso   1.000  H
  C18      1.0000 0.78007  0.83992  0.46479  Biso   1.000  C
  C19      1.0000 0.62676  0.45598  0.18850  Biso   1.000  C
  H14      1.0000 0.68134  0.37868  0.26438  Biso   1.000  H
  C20      1.0000 0.86120  0.43009  0.26211  Biso   1.000  C
  N13      1.0000 0.61428  0.87461  0.36760  Biso   1.000  N
  H15      1.0000 0.47366  0.85812  0.37708  Biso   1.000  H
  H16      1.0000 0.53754  0.88868  0.42451  Biso   1.000  H
  N14      1.0000 0.77877  0.85398  0.41208  Biso   1.000  N
  H17      1.0000 0.75774  0.87560  0.48179  Biso   1.000  H
  H18      1.0000 0.84843  0.83102  0.48000  Biso   1.000  H
  N15      1.0000 0.70545  0.48789  0.17158  Biso   1.000  N
  H19      1.0000 0.56366  0.47130  0.17061  Biso   1.000  H
  H20      1.0000 0.63178  0.41302  0.17980  Biso   1.000  H
  N16      1.0000 0.86325  0.47130  0.22109  Biso   1.000  N
  H21      1.0000 0.92547  0.43189  0.28398  Biso   1.000  H
  H22      1.0000 0.85276  0.38870  0.24869  Biso   1.000  H
  C21      1.0000 0.59945  0.87461  0.31590  Biso   1.000  C
  C22      1.0000 0.70889  0.89740  0.38720  Biso   1.000  C
  C23      1.0000 0.86076  0.84760  0.38928  Biso   1.000  C
  C24      1.0000 0.68682  0.53638  0.13900  Biso   1.000  C
  C25      1.0000 0.80338  0.46569  0.17418  Biso   1.000  C
  C26      1.0000 0.94095  0.51081  0.22019  Biso   1.000  C
  O7       1.0000 0.52235  0.85951  0.29019  Biso   1.000  O
  N17      1.0000 0.68127  0.89632  0.30020  Biso   1.000  N
  H23      1.0000 0.70358  0.93362  0.40859  Biso   1.000  H
  C27      1.0000 0.75475  0.91371  0.34041  Biso   1.000  C
  N18      1.0000 0.84404  0.87731  0.34480  Biso   1.000  N
  O8       1.0000 0.93178  0.81870  0.40461  Biso   1.000  O
  O9       1.0000 0.60806  0.56168  0.12780  Biso   1.000  O
  N19      1.0000 0.77341  0.55090  0.12248  Biso   1.000  N
  C28      1.0000 0.85267  0.50762  0.13911  Biso   1.000  C
  H24      1.0000 0.80286  0.42322  0.16221  Biso   1.000  H
  N20      1.0000 0.93216  0.53368  0.17199  Biso   1.000  N
  O10      1.0000 0.00769  0.52101  0.25400  Biso   1.000  O
  C29      1.0000 0.68147  0.91290  0.24939  Biso   1.000  C
  H25      1.0000 0.76997  0.95762  0.33918  Biso   1.000  H
  C30      1.0000 0.92720  0.89520  0.32051  Biso   1.000  C
  C31      1.0000 0.77680  0.58901  0.07930  Biso   1.000  C
  H26      1.0000 0.87528  0.48542  0.11092  Biso   1.000  H
  C32      1.0000 0.00482  0.57292  0.15559  Biso   1.000  C
  N21      1.0000 0.75108  0.87681  0.22581  Biso   1.000  N
  H27      1.0000 0.61438  0.90769  0.23079  Biso   1.000  H
  H28      1.0000 0.69920  0.95591  0.24779  Biso   1.000  H
  N22      1.0000 0.91759  0.87021  0.27048  Biso   1.000  N
  H29      1.0000 0.98915  0.88090  0.34018  Biso   1.000  H
  H30      1.0000 0.93008  0.93960  0.31869  Biso   1.000  H
  N23      1.0000 0.81828  0.64698  0.09198  Biso   1.000  N
  H31      1.0000 0.70922  0.59422  0.06130  Biso   1.000  H
  H32      1.0000 0.81628  0.56878  0.05650  Biso   1.000  H
  N24      1.0000 0.97079  0.63521  0.15001  Biso   1.000  N
  H33      1.0000 0.06589  0.57139  0.17999  Biso   1.000  H
  H34      1.0000 0.02056  0.55831  0.12330  Biso   1.000  H
  C33      1.0000 0.72088  0.84580  0.18330  Biso   1.000  C
  C34      1.0000 0.85290  0.89511  0.22901  Biso   1.000  C
  C35      1.0000 0.98206  0.82841  0.25798  Biso   1.000  C
  C36      1.0000 0.76346  0.69660  0.09842  Biso   1.000  C
  C37      1.0000 0.92132  0.65831  0.10281  Biso   1.000  C
  C38      1.0000 0.01826  0.67840  0.17939  Biso   1.000  C
  N25      1.0000 0.79965  0.83160  0.16068  Biso   1.000  N
  O11      1.0000 0.63378  0.83241  0.16697  Biso   1.000  O
  C39      1.0000 0.88699  0.86041  0.18330  Biso   1.000  C
  H35      1.0000 0.86019  0.93969  0.22629  Biso   1.000  H
  N26      1.0000 0.96318  0.82010  0.20610  Biso   1.000  N
  O12      1.0000 0.04626  0.80329  0.28610  Biso   1.000  O
  O13      1.0000 0.67436  0.69970  0.09094  Biso   1.000  O
  N27      1.0000 0.82640  0.74320  0.11400  Biso   1.000  N
  C40      1.0000 0.92822  0.72770  0.11222  Biso   1.000  C
  H36      1.0000 0.95617  0.64622  0.07461  Biso   1.000  H
  N28      1.0000 0.99162  0.73260  0.15800  Biso   1.000  N
  O14      1.0000 0.07236  0.67049  0.21830  Biso   1.000  O
  C41      1.0000 0.78978  0.80428  0.11151  Biso   1.000  C
  H37      1.0000 0.91265  0.88881  0.15979  Biso   1.000  H
  C42      1.0000 0.03148  0.78868  0.17980  Biso   1.000  C
  H38      1.0000 0.95478  0.74931  0.08480  Biso   1.000  H
  H39      1.0000 0.82692  0.82841  0.08990  Biso   1.000  H
  H40      1.0000 0.71956  0.80428  0.09641  Biso   1.000  H
  H41      1.0000 0.04918  0.81488  0.15298  Biso   1.000  H
  H42      1.0000 0.09235  0.78010  0.20301  Biso   1.000  H
  C43      1.0000 0.44042  0.43301  0.53970  Biso   1.000  C
  N29      1.0000 0.34093  0.40911  0.53401  Biso   1.000  N
  N30      1.0000 0.51361  0.39720  0.56968  Biso   1.000  N
  C44      1.0000 0.43307  0.49072  0.57131  Biso   1.000  C
  H43      1.0000 0.46062  0.44281  0.50671  Biso   1.000  H
  C45      1.0000 0.30782  0.36650  0.49499  Biso   1.000  C
  C46      1.0000 0.27583  0.45211  0.54561  Biso   1.000  C
  C47      1.0000 0.53415  0.41868  0.61799  Biso   1.000  C
  C48      1.0000 0.55072  0.34070  0.55521  Biso   1.000  C
  N31      1.0000 0.32943  0.49989  0.56611  Biso   1.000  N
  N32      1.0000 0.47885  0.47081  0.62030  Biso   1.000  N
  H44      1.0000 0.46824  0.52559  0.55889  Biso   1.000  H
  N33      1.0000 0.32077  0.30412  0.51139  Biso   1.000  N
  H45      1.0000 0.34485  0.37311  0.46680  Biso   1.000  H
  H46      1.0000 0.23726  0.37369  0.48268  Biso   1.000  H
  O15      1.0000 0.18552  0.44762  0.53925  Biso   1.000  O
  O16      1.0000 0.59033  0.39670  0.65080  Biso   1.000  O
  N34      1.0000 0.48523  0.29100  0.55699  Biso   1.000  N
  H47      1.0000 0.56601  0.34439  0.52088  Biso   1.000  H
  H48      1.0000 0.61313  0.33181  0.57719  Biso   1.000  H
  C49      1.0000 0.28571  0.55180  0.58638  Biso   1.000  C
  C50      1.0000 0.51523  0.51458  0.65909  Biso   1.000  C
  C51      1.0000 0.24185  0.26682  0.51530  Biso   1.000  C
  C52      1.0000 0.41274  0.27239  0.51548  Biso   1.000  C
  C53      1.0000 0.50342  0.24718  0.59158  Biso   1.000  C
  N35      1.0000 0.28384  0.54829  0.64020  Biso   1.000  N
  H49      1.0000 0.21743  0.55651  0.56919  Biso   1.000  H
  H50      1.0000 0.32305  0.58811  0.57938  Biso   1.000  H
  N36      1.0000 0.44139  0.53009  0.69008  Biso   1.000  N
  H51      1.0000 0.57362  0.49782  0.68029  Biso   1.000  H
  H52      1.0000 0.53592  0.55162  0.64321  Biso   1.000  H
  O17      1.0000 0.15485  0.28080  0.50927  Biso   1.000  O
  N37      1.0000 0.28246  0.21132  0.52698  Biso   1.000  N
  H53      1.0000 0.44036  0.27320  0.48350  Biso   1.000  H
  C54      1.0000 0.38595  0.20790  0.52939  Biso   1.000  C
  N38      1.0000 0.44275  0.20071  0.57901  Biso   1.000  N
  O18      1.0000 0.56894  0.24871  0.62770  Biso   1.000  O
  C55      1.0000 0.19673  0.54640  0.65868  Biso   1.000  C
  C56      1.0000 0.36232  0.57161  0.67509  Biso   1.000  C
  C57      1.0000 0.45060  0.51490  0.73951  Biso   1.000  C
  C58      1.0000 0.21986  0.16008  0.53520  Biso   1.000  C
  H54      1.0000 0.40537  0.17770  0.50548  Biso   1.000  H
  C59      1.0000 0.46094  0.14179  0.60189  Biso   1.000  C
  O19      1.0000 0.11383  0.53521  0.63585  Biso   1.000  O
  N39      1.0000 0.21511  0.55809  0.70860  Biso   1.000  N
  C60      1.0000 0.31602  0.57881  0.72359  Biso   1.000  C
  H55      1.0000 0.38704  0.61080  0.66378  Biso   1.000  H
  N40      1.0000 0.37483  0.53921  0.75818  Biso   1.000  N
  O20      1.0000 0.51550  0.48420  0.76179  Biso   1.000  O
  N41      1.0000 0.22115  0.14602  0.58790  Biso   1.000  N
  H56      1.0000 0.24211  0.12440  0.51820  Biso   1.000  H
  H57      1.0000 0.15143  0.16898  0.51998  Biso   1.000  H
  N42      1.0000 0.38564  0.12539  0.63239  Biso   1.000  N
  H58      1.0000 0.52627  0.14188  0.62290  Biso   1.000  H
  H59      1.0000 0.46232  0.11132  0.57548  Biso   1.000  H
  C61      1.0000 0.13874  0.56991  0.73791  Biso   1.000  C
  H60      1.0000 0.31851  0.62132  0.73560  Biso   1.000  H
  C62      1.0000 0.37309  0.54402  0.81148  Biso   1.000  C
  C63      1.0000 0.13916  0.15240  0.61070  Biso   1.000  C
  C64      1.0000 0.29103  0.10260  0.61279  Biso   1.000  C
  C65      1.0000 0.40040  0.12539  0.68409  Biso   1.000  C
  N43      1.0000 0.13660  0.52870  0.77890  Biso   1.000  N
  H61      1.0000 0.07446  0.56811  0.71600  Biso   1.000  H
  H62      1.0000 0.14709  0.61130  0.75130  Biso   1.000  H
  N44      1.0000 0.29441  0.51211  0.82840  Biso   1.000  N
  H63      1.0000 0.43621  0.52870  0.82941  Biso   1.000  H
  H64      1.0000 0.36814  0.58698  0.82018  Biso   1.000  H
  O21      1.0000 0.06815  0.18130  0.59538  Biso   1.000  O
  N45      1.0000 0.15581  0.12269  0.65519  Biso   1.000  N
  H65      1.0000 0.29635  0.06638  0.59140  Biso   1.000  H
  C66      1.0000 0.24510  0.08629  0.65958  Biso   1.000  C
  N46      1.0000 0.31859  0.10368  0.69978  Biso   1.000  N
  O22      1.0000 0.47751  0.14049  0.70979  Biso   1.000  O
  C67      1.0000 0.05891  0.48919  0.77979  Biso   1.000  C
  C68      1.0000 0.19654  0.53431  0.82580  Biso   1.000  C
  C69      1.0000 0.31311  0.46362  0.86099  Biso   1.000  C
  C70      1.0000 0.07273  0.10480  0.67948  Biso   1.000  C
  H66      1.0000 0.22996  0.04238  0.66080  Biso   1.000  H
  C71      1.0000 0.31845  0.08710  0.75059  Biso   1.000  C
  N47      1.0000 0.06769  0.46632  0.82800  Biso   1.000  N
  O23      1.0000 0.99224  0.47899  0.74598  Biso   1.000  O
  C72      1.0000 0.14719  0.49238  0.86088  Biso   1.000  C
  H67      1.0000 0.19699  0.57678  0.83778  Biso   1.000  H
  N48      1.0000 0.22651  0.44910  0.87750  Biso   1.000  N
  O24      1.0000 0.39179  0.43832  0.87218  Biso   1.000  O
  N49      1.0000 0.08234  0.12979  0.72950  Biso   1.000  N
  H68      1.0000 0.01071  0.11910  0.65980  Biso   1.000  H
  H69      1.0000 0.06984  0.06040  0.68130  Biso   1.000  H
  N50      1.0000 0.24886  0.12319  0.77421  Biso   1.000  N
  H70      1.0000 0.38555  0.09231  0.76919  Biso   1.000  H
  H71      1.0000 0.30072  0.04409  0.75219  Biso   1.000  H
  C73      1.0000 0.99511  0.42708  0.84440  Biso   1.000  C
  H72      1.0000 0.12458  0.51458  0.88911  Biso   1.000  H
  C74      1.0000 0.22313  0.41099  0.92069  Biso   1.000  C
  C75      1.0000 0.01779  0.17159  0.74200  Biso   1.000  C
  C76      1.0000 0.14702  0.10489  0.77098  Biso   1.000  C
  C77      1.0000 0.27904  0.15420  0.81669  Biso   1.000  C
  N51      1.0000 0.02913  0.36479  0.84998  Biso   1.000  N
  H73      1.0000 0.93404  0.42861  0.82000  Biso   1.000  H
  H74      1.0000 0.97930  0.44169  0.87668  Biso   1.000  H
  N52      1.0000 0.18164  0.35302  0.90800  Biso   1.000  N
  H75      1.0000 0.29070  0.40578  0.93869  Biso   1.000  H
  H76      1.0000 0.18358  0.43122  0.94349  Biso   1.000  H
  N53      1.0000 0.03675  0.17990  0.79389  Biso   1.000  N
  O25      1.0000 0.95359  0.19671  0.71388  Biso   1.000  O
  H77      1.0000 0.13974  0.06031  0.77369  Biso   1.000  H
  C78      1.0000 0.11293  0.13959  0.81669  Biso   1.000  C
  N54      1.0000 0.20020  0.16840  0.83930  Biso   1.000  N
  O26      1.0000 0.36615  0.16759  0.83302  Biso   1.000  O
  C79      1.0000 0.07861  0.34169  0.89718  Biso   1.000  C
  C80      1.0000 0.98160  0.32160  0.82059  Biso   1.000  C
  C81      1.0000 0.23640  0.30340  0.90160  Biso   1.000  C
  C82      1.0000 0.96838  0.21132  0.82018  Biso   1.000  C
  H78      1.0000 0.08720  0.11119  0.84020  Biso   1.000  H
  C83      1.0000 0.21007  0.19572  0.88847  Biso   1.000  C
  C84      1.0000 0.07172  0.27230  0.88781  Biso   1.000  C
  H79      1.0000 0.04370  0.35378  0.92541  Biso   1.000  H
  N55      1.0000 0.00831  0.26740  0.84198  Biso   1.000  N
  O27      1.0000 0.92749  0.32951  0.78169  Biso   1.000  O
  N56      1.0000 0.17353  0.25680  0.88598  Biso   1.000  N
  O28      1.0000 0.32549  0.30030  0.90904  Biso   1.000  O
  H80      1.0000 0.95074  0.18512  0.84700  Biso   1.000  H
  H81      1.0000 0.90751  0.21990  0.79701  Biso   1.000  H
  H82      1.0000 0.17301  0.17159  0.91008  Biso   1.000  H
  H83      1.0000 0.28029  0.19572  0.90358  Biso   1.000  H
  H84      1.0000 0.04508  0.25069  0.91518  Biso   1.000  H
  O29      1.0000 0.63371  0.66761  0.66698  Biso   1.000  O
  C85      1.0000 0.72082  0.65422  0.68331  Biso   1.000  C
  N57      1.0000 0.75100  0.62321  0.72578  Biso   1.000  N
  N58      1.0000 0.79966  0.66842  0.66069  Biso   1.000  N
  C86      1.0000 0.68140  0.58712  0.74940  Biso   1.000  C
  C87      1.0000 0.85282  0.60492  0.72898  Biso   1.000  C
  C88      1.0000 0.78971  0.69570  0.61148  Biso   1.000  C
  C89      1.0000 0.88692  0.63961  0.68331  Biso   1.000  C
  N59      1.0000 0.68120  0.60370  0.80021  Biso   1.000  N
  H85      1.0000 0.61431  0.59229  0.73081  Biso   1.000  H
  H86      1.0000 0.69913  0.54411  0.74780  Biso   1.000  H
  N60      1.0000 0.91752  0.62981  0.77049  Biso   1.000  N
  H87      1.0000 0.86012  0.56029  0.72630  Biso   1.000  H
  N61      1.0000 0.82633  0.75682  0.61401  Biso   1.000  N
  H88      1.0000 0.82685  0.67161  0.58991  Biso   1.000  H
  H89      1.0000 0.71956  0.69570  0.59638  Biso   1.000  H
  N62      1.0000 0.96311  0.67988  0.70611  Biso   1.000  N
  H90      1.0000 0.91266  0.61121  0.65980  Biso   1.000  H
  C90      1.0000 0.59939  0.62541  0.81591  Biso   1.000  C
  C91      1.0000 0.75467  0.58631  0.84038  Biso   1.000  C
  C92      1.0000 0.92712  0.60478  0.82048  Biso   1.000  C
  C93      1.0000 0.98200  0.67161  0.75799  Biso   1.000  C
  C94      1.0000 0.76346  0.80338  0.59839  Biso   1.000  C
  C95      1.0000 0.92814  0.77228  0.61219  Biso   1.000  C
  C96      1.0000 0.03141  0.71129  0.67981  Biso   1.000  C
  O30      1.0000 0.52235  0.64051  0.79021  Biso   1.000  O
  N63      1.0000 0.61422  0.62541  0.86761  Biso   1.000  N
  N64      1.0000 0.84404  0.62271  0.84481  Biso   1.000  N
  C97      1.0000 0.70883  0.60258  0.88721  Biso   1.000  C
  H91      1.0000 0.76990  0.54240  0.83919  Biso   1.000  H
  H92      1.0000 0.98908  0.61912  0.84020  Biso   1.000  H
  H93      1.0000 0.93002  0.56038  0.81870  Biso   1.000  H
  O31      1.0000 0.04619  0.69669  0.78608  Biso   1.000  O
  O32      1.0000 0.67437  0.80028  0.59095  Biso   1.000  O
  N65      1.0000 0.81822  0.85300  0.59199  Biso   1.000  N
  N66      1.0000 0.99154  0.76738  0.65798  Biso   1.000  N
  H94      1.0000 0.95470  0.75071  0.58478  Biso   1.000  H
  C98      1.0000 0.92124  0.84171  0.60278  Biso   1.000  C
  H95      1.0000 0.04912  0.68509  0.65299  Biso   1.000  H
  H96      1.0000 0.09234  0.71988  0.70298  Biso   1.000  H
  C99      1.0000 0.53892  0.64181  0.89811  Biso   1.000  C
  C100     1.0000 0.86069  0.65242  0.88929  Biso   1.000  C
  N67      1.0000 0.77870  0.64599  0.91209  Biso   1.000  N
  H97      1.0000 0.70351  0.56640  0.90860  Biso   1.000  H
  C101     1.0000 0.77673  0.91102  0.57931  Biso   1.000  C
  C102     1.0000 0.01826  0.82158  0.67940  Biso   1.000  C
  N68      1.0000 0.97071  0.86482  0.64998  Biso   1.000  N
  H98      1.0000 0.95616  0.85380  0.57459  Biso   1.000  H
  N69      1.0000 0.55711  0.70069  0.92098  Biso   1.000  N
  H99      1.0000 0.47359  0.64190  0.87709  Biso   1.000  H
  H100     1.0000 0.53753  0.61130  0.92448  Biso   1.000  H
  O33      1.0000 0.93170  0.68132  0.90458  Biso   1.000  O
  C103     1.0000 0.78000  0.66011  0.96480  Biso   1.000  C
  N70      1.0000 0.77334  0.94908  0.62249  Biso   1.000  N
  H101     1.0000 0.70915  0.90580  0.56131  Biso   1.000  H
  H102     1.0000 0.81628  0.93119  0.55651  Biso   1.000  H
  O34      1.0000 0.07230  0.82949  0.71831  Biso   1.000  O
  C104     1.0000 0.00475  0.92710  0.65560  Biso   1.000  C
  C105     1.0000 0.49644  0.74720  0.90841  Biso   1.000  C
  C106     1.0000 0.61391  0.70788  0.97060  Biso   1.000  C
  N71      1.0000 0.71739  0.71129  0.97298  Biso   1.000  N
  H103     1.0000 0.75767  0.62442  0.98180  Biso   1.000  H
  H104     1.0000 0.84842  0.66900  0.97997  Biso   1.000  H
  C107     1.0000 0.68675  0.96360  0.63901  Biso   1.000  C
  C108     1.0000 0.85266  0.99240  0.63908  Biso   1.000  C
  N72      1.0000 0.93210  0.96629  0.67200  Biso   1.000  N
  H105     1.0000 0.06582  0.92859  0.68000  Biso   1.000  H
  H106     1.0000 0.02056  0.94171  0.62331  Biso   1.000  H
  O35      1.0000 0.43092  0.74869  0.87229  Biso   1.000  O
  N73      1.0000 0.51463  0.79102  0.94300  Biso   1.000  N
  C109     1.0000 0.58711  0.77241  0.98447  Biso   1.000  C
  H107     1.0000 0.59447  0.67772  0.99448  Biso   1.000  H
  C110     1.0000 0.75801  0.76680  0.98470  Biso   1.000  C
  O36      1.0000 0.60806  0.93829  0.62781  Biso   1.000  O
  N74      1.0000 0.70545  0.01209  0.67159  Biso   1.000  N
  H108     1.0000 0.87521  0.01461  0.61089  Biso   1.000  H
  C111     1.0000 0.80332  0.03429  0.67419  Biso   1.000  C
  C112     1.0000 0.94095  0.98921  0.72020  Biso   1.000  C
  C113     1.0000 0.44913  0.84068  0.94479  Biso   1.000  C
  N75      1.0000 0.67908  0.80410  0.98860  Biso   1.000  N
  H109     1.0000 0.55957  0.77318  0.01650  Biso   1.000  H
  O37      1.0000 0.84500  0.78082  0.99069  Biso   1.000  O
  C114     1.0000 0.62675  0.04400  0.68848  Biso   1.000  C
  N76      1.0000 0.86326  0.02872  0.72110  Biso   1.000  N
  H110     1.0000 0.80286  0.07681  0.66218  Biso   1.000  H
  O38      1.0000 0.00762  0.97901  0.75401  Biso   1.000  O
  N77      1.0000 0.48616  0.89722  0.93028  Biso   1.000  N
  H111     1.0000 0.43376  0.84441  0.97908  Biso   1.000  H
  H112     1.0000 0.38673  0.83178  0.92281  Biso   1.000  H
  C115     1.0000 0.69211  0.86648  0.00501  Biso   1.000  C
  N78      1.0000 0.62502  0.03919  0.74178  Biso   1.000  N
  H113     1.0000 0.56365  0.02872  0.67059  Biso   1.000  H
  H114     1.0000 0.63172  0.08701  0.67981  Biso   1.000  H
  C116     1.0000 0.86112  0.06988  0.76209  Biso   1.000  C
  C117     1.0000 0.46571  0.91870  0.88200  Biso   1.000  C
  C118     1.0000 0.55944  0.93299  0.96030  Biso   1.000  C
  N79      1.0000 0.65893  0.90908  0.96599  Biso   1.000  N
  H115     1.0000 0.65508  0.87308  0.03320  Biso   1.000  H
  H116     1.0000 0.76266  0.87371  0.01728  Biso   1.000  H
  C119     1.0000 0.54918  0.01492  0.76049  Biso   1.000  C
  C120     1.0000 0.68384  0.07878  0.77641  Biso   1.000  C
  N80      1.0000 0.78475  0.05811  0.79140  Biso   1.000  N
  H117     1.0000 0.92540  0.06809  0.78399  Biso   1.000  H
  H118     1.0000 0.85269  0.11132  0.74870  Biso   1.000  H
  O39      1.0000 0.40953  0.89668  0.84920  Biso   1.000  O
  N81      1.0000 0.52101  0.97079  0.87970  Biso   1.000  N
  C121     1.0000 0.56679  0.99070  0.92868  Biso   1.000  C
  H119     1.0000 0.53917  0.94279  0.99329  Biso   1.000  H
  C122     1.0000 0.72403  0.95209  0.95438  Biso   1.000  C
  O40      1.0000 0.48436  0.98418  0.73821  Biso   1.000  O
  N82      1.0000 0.55839  0.03011  0.80988  Biso   1.000  N
  H120     1.0000 0.68135  0.12130  0.76439  Biso   1.000  H
  C123     1.0000 0.63754  0.07159  0.82491  Biso   1.000  C
  C124     1.0000 0.80313  0.04638  0.84131  Biso   1.000  C
  C125     1.0000 0.48463  0.01461  0.84090  Biso   1.000  C
  N83      1.0000 0.67043  0.99991  0.93389  Biso   1.000  N
  H121     1.0000 0.53162  0.02562  0.94111  Biso   1.000  H
  O41      1.0000 0.81432  0.94760  0.96071  Biso   1.000  O
  N84      1.0000 0.71602  0.04831  0.85980  Biso   1.000  N
  H122     1.0000 0.61281  0.11078  0.83618  Biso   1.000  H
  O42      1.0000 0.88602  0.03519  0.86415  Biso   1.000  O
  H123     1.0000 0.42623  0.99780  0.81970  Biso   1.000  H
  H124     1.0000 0.46394  0.05159  0.85678  Biso   1.000  H
  C126     1.0000 0.71414  0.05182  0.91358  Biso   1.000  C
  H125     1.0000 0.78243  0.05649  0.93080  Biso   1.000  H
  H126     1.0000 0.67681  0.08809  0.92061  Biso   1.000  H
  O43      1.0000 0.36615  0.33239  0.33304  Biso   1.000  O
  C127     1.0000 0.27905  0.34578  0.31671  Biso   1.000  C
  N85      1.0000 0.24885  0.37679  0.27420  Biso   1.000  N
  N86      1.0000 0.20027  0.33158  0.33929  Biso   1.000  N
  C128     1.0000 0.31845  0.41288  0.25058  Biso   1.000  C
  C129     1.0000 0.14710  0.39508  0.27100  Biso   1.000  C
  C130     1.0000 0.21015  0.30430  0.38850  Biso   1.000  C
  C131     1.0000 0.11294  0.36039  0.31671  Biso   1.000  C
  N87      1.0000 0.31867  0.39630  0.19981  Biso   1.000  N
  H127     1.0000 0.38554  0.40771  0.26918  Biso   1.000  H
  H128     1.0000 0.30079  0.45589  0.25218  Biso   1.000  H
  N88      1.0000 0.08241  0.37019  0.22949  Biso   1.000  N
  H129     1.0000 0.13973  0.43971  0.27368  Biso   1.000  H
  N89      1.0000 0.17353  0.24318  0.38601  Biso   1.000  N
  H130     1.0000 0.17309  0.32839  0.41011  Biso   1.000  H
  H131     1.0000 0.28037  0.30430  0.40360  Biso   1.000  H
  N90      1.0000 0.03676  0.32012  0.29391  Biso   1.000  N
  H132     1.0000 0.08727  0.38879  0.34018  Biso   1.000  H
  C132     1.0000 0.40048  0.37459  0.18411  Biso   1.000  C
  C133     1.0000 0.24518  0.41369  0.15960  Biso   1.000  C
  C134     1.0000 0.07281  0.39522  0.17950  Biso   1.000  C
  C135     1.0000 0.01786  0.32839  0.24199  Biso   1.000  C
  C136     1.0000 0.23647  0.19662  0.40159  Biso   1.000  C
  C137     1.0000 0.07178  0.22772  0.38779  Biso   1.000  C
  C138     1.0000 0.96845  0.28871  0.32021  Biso   1.000  C
  O44      1.0000 0.47758  0.35949  0.20982  Biso   1.000  O
  N91      1.0000 0.38572  0.37459  0.13241  Biso   1.000  N
  N92      1.0000 0.15589  0.37729  0.15521  Biso   1.000  N
  C139     1.0000 0.29111  0.39742  0.11281  Biso   1.000  C
  H133     1.0000 0.22995  0.45760  0.16079  Biso   1.000  H
  H134     1.0000 0.01078  0.38088  0.15979  Biso   1.000  H
  H135     1.0000 0.06991  0.43962  0.18129  Biso   1.000  H
  O45      1.0000 0.95367  0.30331  0.21391  Biso   1.000  O
  O46      1.0000 0.32556  0.19972  0.40903  Biso   1.000  O
  N93      1.0000 0.18164  0.14700  0.40799  Biso   1.000  N
  N94      1.0000 0.00839  0.23262  0.34201  Biso   1.000  N
  H136     1.0000 0.04515  0.24929  0.41521  Biso   1.000  H
  C140     1.0000 0.07869  0.15829  0.39720  Biso   1.000  C
  H137     1.0000 0.95074  0.31491  0.34699  Biso   1.000  H
  H138     1.0000 0.90758  0.28012  0.29700  Biso   1.000  H
  C141     1.0000 0.46102  0.35819  0.10191  Biso   1.000  C
  C142     1.0000 0.13916  0.34758  0.11069  Biso   1.000  C
  N95      1.0000 0.22122  0.35401  0.08789  Biso   1.000  N
  H139     1.0000 0.29642  0.43360  0.09139  Biso   1.000  H
  C143     1.0000 0.22314  0.08898  0.42071  Biso   1.000  C
  C144     1.0000 0.98167  0.17842  0.32058  Biso   1.000  C
  N96      1.0000 0.02914  0.13518  0.35000  Biso   1.000  N
  H140     1.0000 0.04377  0.14620  0.42540  Biso   1.000  H
  N97      1.0000 0.44282  0.29931  0.07900  Biso   1.000  N
  H141     1.0000 0.52626  0.35810  0.12289  Biso   1.000  H
  H142     1.0000 0.46240  0.38870  0.07551  Biso   1.000  H
  O47      1.0000 0.06816  0.31868  0.09540  Biso   1.000  O
  C145     1.0000 0.21993  0.33989  0.03519  Biso   1.000  C
  N98      1.0000 0.22658  0.05092  0.37749  Biso   1.000  N
  H143     1.0000 0.29078  0.09420  0.43871  Biso   1.000  H
  H144     1.0000 0.18366  0.06881  0.44351  Biso   1.000  H
  O48      1.0000 0.92757  0.17051  0.28171  Biso   1.000  O
  C146     1.0000 0.99518  0.07290  0.34439  Biso   1.000  C
  C147     1.0000 0.50350  0.25280  0.09161  Biso   1.000  C
  C148     1.0000 0.38601  0.29212  0.02938  Biso   1.000  C
  N99      1.0000 0.28246  0.28871  0.02700  Biso   1.000  N
  H145     1.0000 0.24218  0.37558  0.01819  Biso   1.000  H
  H146     1.0000 0.15151  0.33100  0.02001  Biso   1.000  H
  C149     1.0000 0.31319  0.03640  0.36101  Biso   1.000  C
  C150     1.0000 0.14726  0.00760  0.36090  Biso   1.000  C
  N100     1.0000 0.06776  0.03371  0.32798  Biso   1.000  N
  H147     1.0000 0.93403  0.07141  0.31999  Biso   1.000  H
  H148     1.0000 0.97937  0.05829  0.37671  Biso   1.000  H
  O49      1.0000 0.56901  0.25131  0.12769  Biso   1.000  O
  N101     1.0000 0.48529  0.20898  0.05698  Biso   1.000  N
  C151     1.0000 0.41282  0.22759  0.01551  Biso   1.000  C
  H149     1.0000 0.40538  0.32228  0.00550  Biso   1.000  H
  C152     1.0000 0.24191  0.23320  0.01529  Biso   1.000  C
  O50      1.0000 0.39187  0.06171  0.37221  Biso   1.000  O
  N102     1.0000 0.29448  0.98791  0.32839  Biso   1.000  N
  H150     1.0000 0.12465  0.98539  0.38910  Biso   1.000  H
  C153     1.0000 0.19654  0.96571  0.32579  Biso   1.000  C
  C154     1.0000 0.05897  0.01079  0.27978  Biso   1.000  C
  C155     1.0000 0.55079  0.15932  0.05520  Biso   1.000  C
  N103     1.0000 0.32077  0.19590  0.01138  Biso   1.000  N
  H151     1.0000 0.44036  0.22682  0.98349  Biso   1.000  H
  O51      1.0000 0.15493  0.21918  0.00930  Biso   1.000  O
  C156     1.0000 0.37317  0.95600  0.31151  Biso   1.000  C
  N104     1.0000 0.13667  0.97128  0.27889  Biso   1.000  N
  H152     1.0000 0.19707  0.92319  0.33780  Biso   1.000  H
  O52      1.0000 0.99231  0.02099  0.24597  Biso   1.000  O
  N105     1.0000 0.51369  0.10278  0.06970  Biso   1.000  N
  H153     1.0000 0.56609  0.15559  0.02090  Biso   1.000  H
  H154     1.0000 0.61321  0.16822  0.07722  Biso   1.000  H
  C157     1.0000 0.30783  0.13352  0.99502  Biso   1.000  C
  N106     1.0000 0.37491  0.96081  0.25821  Biso   1.000  N
  H155     1.0000 0.43627  0.97128  0.32940  Biso   1.000  H
  H156     1.0000 0.36815  0.91299  0.32021  Biso   1.000  H
  C158     1.0000 0.13880  0.93012  0.23790  Biso   1.000  C
  C159     1.0000 0.53422  0.08130  0.11798  Biso   1.000  C
  C160     1.0000 0.44049  0.06701  0.03969  Biso   1.000  C
  N107     1.0000 0.34100  0.09092  0.03400  Biso   1.000  N
  H157     1.0000 0.34485  0.12692  0.96678  Biso   1.000  H
  H158     1.0000 0.23726  0.12629  0.98270  Biso   1.000  H
  C161     1.0000 0.45067  0.98508  0.23950  Biso   1.000  C
  C162     1.0000 0.31609  0.92122  0.22362  Biso   1.000  C
  N108     1.0000 0.21518  0.94189  0.20859  Biso   1.000  N
  H159     1.0000 0.07445  0.93191  0.21599  Biso   1.000  H
  H160     1.0000 0.14716  0.88868  0.25129  Biso   1.000  H
  O53      1.0000 0.59040  0.10332  0.15079  Biso   1.000  O
  N109     1.0000 0.47891  0.02921  0.12029  Biso   1.000  N
  C163     1.0000 0.43307  0.00930  0.07130  Biso   1.000  C
  H161     1.0000 0.46069  0.05721  0.00670  Biso   1.000  H
  C164     1.0000 0.27589  0.04791  0.04560  Biso   1.000  C
  O54      1.0000 0.51558  0.01582  0.26181  Biso   1.000  O
  N110     1.0000 0.44146  0.96989  0.19010  Biso   1.000  N
  H162     1.0000 0.31858  0.87870  0.23559  Biso   1.000  H
  C165     1.0000 0.36240  0.92841  0.17511  Biso   1.000  C
  C166     1.0000 0.19681  0.95362  0.15871  Biso   1.000  C
  C167     1.0000 0.51530  0.98539  0.15908  Biso   1.000  C
  N111     1.0000 0.32949  0.00009  0.06610  Biso   1.000  N
  H163     1.0000 0.46832  0.97438  0.05892  Biso   1.000  H
  O55      1.0000 0.18560  0.05240  0.03928  Biso   1.000  O
  N112     1.0000 0.28390  0.95169  0.14019  Biso   1.000  N
  H164     1.0000 0.38711  0.88922  0.16381  Biso   1.000  H
  O56      1.0000 0.11390  0.96481  0.13584  Biso   1.000  O
  H165     1.0000 0.57369  0.00220  0.18028  Biso   1.000  H
  H166     1.0000 0.53599  0.94841  0.14320  Biso   1.000  H
  C168     1.0000 0.28579  0.94818  0.08640  Biso   1.000  C
  H167     1.0000 0.21750  0.94351  0.06918  Biso   1.000  H
  H168     1.0000 0.32312  0.91191  0.07941  Biso   1.000  H
  Ne1      1.0000 0.25980  0.16946  0.20615  Biso   1.000  Ne
  He1      1.0000 0.46921  0.19295  0.26387  Biso   1.000  He
  He2      1.0000 0.03159  0.14283  0.13648  Biso   1.000  He
  Ar1      1.0000 0.25961  0.16964  0.20611  Biso   1.000  Ar
  Ne2      1.0000 0.74015  0.66946  0.29385  Biso   1.000  Ne
  He3      1.0000 0.93232  0.64586  0.35260  Biso   1.000  He
  He4      1.0000 0.52084  0.69383  0.23319  Biso   1.000  He
  Ar2      1.0000 0.74035  0.66965  0.29389  Biso   1.000  Ar
  Ne3      1.0000 0.25974  0.33054  0.70614  Biso   1.000  Ne
  He5      1.0000 0.47161  0.30683  0.76456  Biso   1.000  He
  He6      1.0000 0.04218  0.35627  0.63967  Biso   1.000  He
  Ar3      1.0000 0.25954  0.33035  0.70610  Biso   1.000  Ar
  Ne4      1.0000 0.74011  0.83054  0.79385  Biso   1.000  Ne
  He7      1.0000 0.93838  0.85466  0.85443  Biso   1.000  He
  He8      1.0000 0.50945  0.80516  0.72982  Biso   1.000  He
  Ar4      1.0000 0.74202  0.83026  0.79244  Biso   1.000  Ar
