data_image0
_cell_length_a       14.219
_cell_length_b       18.738
_cell_length_c       19.393
_cell_angle_alpha    104.4
_cell_angle_beta     91.81
_cell_angle_gamma    92.57

_symmetry_space_group_name_H-M    "P 1"
_symmetry_int_tables_number       1

loop_
  _symmetry_equiv_pos_as_xyz
  'x, y, z'

loop_
  _atom_site_label
  _atom_site_occupancy
  _atom_site_fract_x
  _atom_site_fract_y
  _atom_site_fract_z
  _atom_site_thermal_displace_type
  _atom_site_B_iso_or_equiv
  _atom_site_type_symbol
  C1       1.0000 0.52828  0.60954  0.53780  Biso   1.000  C
  C2       1.0000 0.45945  0.65536  0.52949  Biso   1.000  C
  C3       1.0000 0.59248  0.58695  0.48200  Biso   1.000  C
  O1       1.0000 0.53271  0.58969  0.60111  Biso   1.000  O
  C4       1.0000 0.44763  0.67452  0.46538  Biso   1.000  C
  H1       1.0000 0.41965  0.67413  0.56748  Biso   1.000  H
  C5       1.0000 0.57784  0.60584  0.41992  Biso   1.000  C
  H2       1.0000 0.64456  0.55896  0.48861  Biso   1.000  H
  C6       1.0000 0.60576  0.54294  0.61240  Biso   1.000  C
  C7       1.0000 0.50426  0.64945  0.41033  Biso   1.000  C
  H3       1.0000 0.39889  0.70597  0.45973  Biso   1.000  H
  H4       1.0000 0.61868  0.58911  0.38198  Biso   1.000  H
  C8       1.0000 0.58916  0.52437  0.68189  Biso   1.000  C
  H5       1.0000 0.66833  0.56873  0.61400  Biso   1.000  H
  H6       1.0000 0.60342  0.49735  0.57318  Biso   1.000  H
  C9       1.0000 0.48774  0.66743  0.34020  Biso   1.000  C
  O2       1.0000 0.61655  0.58744  0.73662  Biso   1.000  O
  H7       1.0000 0.52172  0.51036  0.68493  Biso   1.000  H
  H8       1.0000 0.62682  0.48246  0.68632  Biso   1.000  H
  N1       1.0000 0.53325  0.62786  0.28526  Biso   1.000  N
  N2       1.0000 0.42916  0.72093  0.33700  Biso   1.000  N
  C10      1.0000 0.61093  0.57516  0.80750  Biso   1.000  C
  C11      1.0000 0.51018  0.64150  0.22232  Biso   1.000  C
  C12      1.0000 0.41348  0.73140  0.27231  Biso   1.000  C
  C13      1.0000 0.65602  0.63127  0.86771  Biso   1.000  C
  H9       1.0000 0.63903  0.52757  0.80670  Biso   1.000  H
  H10      1.0000 0.54351  0.56948  0.81730  Biso   1.000  H
  N3       1.0000 0.45053  0.69122  0.21279  Biso   1.000  N
  C14      1.0000 0.55393  0.59601  0.15918  Biso   1.000  C
  C15      1.0000 0.35277  0.79100  0.26362  Biso   1.000  C
  O3       1.0000 0.74125  0.66048  0.85530  Biso   1.000  O
  H11      1.0000 0.61283  0.67197  0.88189  Biso   1.000  H
  H12      1.0000 0.66406  0.60897  0.90859  Biso   1.000  H
  C16      1.0000 0.61632  0.54308  0.16520  Biso   1.000  C
  C17      1.0000 0.53416  0.60749  0.09118  Biso   1.000  C
  C18      1.0000 0.31926  0.83924  0.32230  Biso   1.000  C
  C19      1.0000 0.33521  0.80311  0.19680  Biso   1.000  C
  C20      1.0000 0.80822  0.62346  0.81821  Biso   1.000  C
  H13      1.0000 0.62973  0.53362  0.21028  Biso   1.000  H
  C21      1.0000 0.65904  0.50391  0.10519  Biso   1.000  C
  C22      1.0000 0.58054  0.56972  0.03432  Biso   1.000  C
  H14      1.0000 0.48879  0.64141  0.08521  Biso   1.000  H
  C23      1.0000 0.26930  0.89854  0.31553  Biso   1.000  C
  H15      1.0000 0.33090  0.83129  0.36828  Biso   1.000  H
  H16      1.0000 0.35834  0.77108  0.15571  Biso   1.000  H
  C24      1.0000 0.28337  0.86232  0.19051  Biso   1.000  C
  C25      1.0000 0.87793  0.69330  0.84032  Biso   1.000  C
  H17      1.0000 0.79273  0.60759  0.76630  Biso   1.000  H
  H18      1.0000 0.82853  0.58148  0.83638  Biso   1.000  H
  H19      1.0000 0.70194  0.46758  0.10951  Biso   1.000  H
  C26      1.0000 0.64034  0.51667  0.04071  Biso   1.000  C
  H20      1.0000 0.57109  0.58060  0.98934  Biso   1.000  H
  C27      1.0000 0.25258  0.90730  0.24838  Biso   1.000  C
  H21      1.0000 0.24709  0.93214  0.35608  Biso   1.000  H
  H22      1.0000 0.27000  0.87060  0.14479  Biso   1.000  H
  O4       1.0000 0.86144  0.75487  0.89399  Biso   1.000  O
  H23      1.0000 0.93932  0.67578  0.85290  Biso   1.000  H
  H24      1.0000 0.88728  0.71078  0.79673  Biso   1.000  H
  O5       1.0000 0.67744  0.47280  0.98092  Biso   1.000  O
  O6       1.0000 0.19528  0.96591  0.24018  Biso   1.000  O
  C28      1.0000 0.92888  0.81207  0.91658  Biso   1.000  C
  C29      1.0000 0.76667  0.49191  0.96398  Biso   1.000  C
  C30      1.0000 0.23882  0.03470  0.24710  Biso   1.000  C
  H25      1.0000 0.94615  0.81408  0.96699  Biso   1.000  H
  H26      1.0000 0.89743  0.85814  0.91669  Biso   1.000  H
  C31      1.0000 0.01957  0.81498  0.87922  Biso   1.000  C
  N4       1.0000 0.81244  0.55087  0.00368  Biso   1.000  N
  C32      1.0000 0.80356  0.44323  0.90275  Biso   1.000  C
  N5       1.0000 0.32944  0.04359  0.26368  Biso   1.000  N
  C33      1.0000 0.18035  0.08813  0.23373  Biso   1.000  C
  O7       1.0000 0.00917  0.81520  0.80734  Biso   1.000  O
  H27      1.0000 0.05743  0.85997  0.90459  Biso   1.000  H
  H28      1.0000 0.05552  0.77197  0.88290  Biso   1.000  H
  C34      1.0000 0.89814  0.56681  0.98604  Biso   1.000  C
  H29      1.0000 0.76843  0.40037  0.87573  Biso   1.000  H
  C35      1.0000 0.88916  0.46138  0.88623  Biso   1.000  C
  C36      1.0000 0.36968  0.11130  0.26890  Biso   1.000  C
  H30      1.0000 0.11516  0.07708  0.22120  Biso   1.000  H
  C37      1.0000 0.22026  0.15619  0.23911  Biso   1.000  C
  C38      1.0000 0.09446  0.83254  0.77803  Biso   1.000  C
  N6       1.0000 0.94381  0.62739  0.02931  Biso   1.000  N
  C39      1.0000 0.94031  0.52179  0.92635  Biso   1.000  C
  H31      1.0000 0.91596  0.43171  0.84535  Biso   1.000  H
  N7       1.0000 0.46284  0.12095  0.28942  Biso   1.000  N
  C40      1.0000 0.31632  0.17139  0.25712  Biso   1.000  C
  H32      1.0000 0.18274  0.19402  0.23048  Biso   1.000  H
  C41      1.0000 0.07704  0.82476  0.69943  Biso   1.000  C
  H33      1.0000 0.14307  0.79869  0.78570  Biso   1.000  H
  H34      1.0000 0.11748  0.88366  0.80169  Biso   1.000  H
  C42      1.0000 0.02835  0.64600  0.01370  Biso   1.000  C
  C43      1.0000 0.03772  0.54732  0.91255  Biso   1.000  C
  C44      1.0000 0.50046  0.18750  0.29762  Biso   1.000  C
  C45      1.0000 0.36473  0.23972  0.26682  Biso   1.000  C
  O8       1.0000 0.02186  0.88520  0.69228  Biso   1.000  O
  H35      1.0000 0.13767  0.82657  0.67592  Biso   1.000  H
  H36      1.0000 0.04267  0.77714  0.67710  Biso   1.000  H
  C46      1.0000 0.07925  0.60730  0.95534  Biso   1.000  C
  O9       1.0000 0.07765  0.70540  0.05611  Biso   1.000  O
  H37      1.0000 0.06972  0.52028  0.87296  Biso   1.000  H
  O10      1.0000 0.59587  0.20066  0.31809  Biso   1.000  O
  C47      1.0000 0.45673  0.24850  0.28441  Biso   1.000  C
  H38      1.0000 0.33165  0.28070  0.26069  Biso   1.000  H
  C48      1.0000 0.99827  0.88916  0.62413  Biso   1.000  C
  H39      1.0000 0.14102  0.62409  0.94735  Biso   1.000  H
  C49      1.0000 0.03416  0.74782  0.11649  Biso   1.000  C
  C50      1.0000 0.64916  0.13980  0.32608  Biso   1.000  C
  H40      1.0000 0.49094  0.29402  0.28792  Biso   1.000  H
  C51      1.0000 0.94057  0.94755  0.62002  Biso   1.000  C
  C52      1.0000 0.02229  0.83983  0.56370  Biso   1.000  C
  C53      1.0000 0.95513  0.78538  0.10951  Biso   1.000  C
  C54      1.0000 0.07626  0.75151  0.18118  Biso   1.000  C
  C55      1.0000 0.67985  0.14003  0.39493  Biso   1.000  C
  C56      1.0000 0.67111  0.08772  0.26719  Biso   1.000  C
  C57      1.0000 0.91355  0.95484  0.55421  Biso   1.000  C
  H41      1.0000 0.92120  0.98085  0.66191  Biso   1.000  H
  C58      1.0000 0.99210  0.84904  0.49831  Biso   1.000  C
  H42      1.0000 0.05914  0.79956  0.56663  Biso   1.000  H
  H43      1.0000 0.92507  0.78001  0.06389  Biso   1.000  H
  C59      1.0000 0.91988  0.83099  0.16898  Biso   1.000  C
  C60      1.0000 0.03816  0.79459  0.24161  Biso   1.000  C
  H44      1.0000 0.13078  0.72510  0.18502  Biso   1.000  H
  H45      1.0000 0.66112  0.17572  0.43532  Biso   1.000  H
  C61      1.0000 0.73966  0.08482  0.40122  Biso   1.000  C
  C62      1.0000 0.72902  0.03369  0.27492  Biso   1.000  C
  H46      1.0000 0.64670  0.08891  0.22131  Biso   1.000  H
  C63      1.0000 0.93967  0.90771  0.49218  Biso   1.000  C
  H47      1.0000 0.87508  0.99413  0.55101  Biso   1.000  H
  H48      1.0000 0.00763  0.81406  0.45632  Biso   1.000  H
  C64      1.0000 0.96127  0.83510  0.23613  Biso   1.000  C
  H49      1.0000 0.86749  0.85940  0.16440  Biso   1.000  H
  H50      1.0000 0.06554  0.79623  0.28728  Biso   1.000  H
  H51      1.0000 0.76430  0.08390  0.44710  Biso   1.000  H
  C65      1.0000 0.76362  0.03172  0.34292  Biso   1.000  C
  H52      1.0000 0.74586  0.99741  0.23410  Biso   1.000  H
  C66      1.0000 0.91087  0.91714  0.42141  Biso   1.000  C
  C67      1.0000 0.92114  0.88210  0.29970  Biso   1.000  C
  C68      1.0000 0.82910  0.97293  0.35022  Biso   1.000  C
  N8       1.0000 0.95006  0.87235  0.36407  Biso   1.000  N
  N9       1.0000 0.85048  0.96684  0.41571  Biso   1.000  N
  N10      1.0000 0.86199  0.93230  0.29101  Biso   1.000  N
  C69      1.0000 0.47185  0.39051  0.46218  Biso   1.000  C
  O11      1.0000 0.46735  0.41043  0.39893  Biso   1.000  O
  C70      1.0000 0.54060  0.34475  0.47049  Biso   1.000  C
  C71      1.0000 0.40766  0.41317  0.51803  Biso   1.000  C
  C72      1.0000 0.39437  0.45713  0.38763  Biso   1.000  C
  C73      1.0000 0.55243  0.32553  0.53460  Biso   1.000  C
  H53      1.0000 0.58040  0.32592  0.43250  Biso   1.000  H
  H54      1.0000 0.35550  0.44115  0.51142  Biso   1.000  H
  C74      1.0000 0.42222  0.39422  0.58011  Biso   1.000  C
  C75      1.0000 0.41097  0.47574  0.31809  Biso   1.000  C
  H55      1.0000 0.33173  0.43132  0.38598  Biso   1.000  H
  H56      1.0000 0.39664  0.50276  0.42680  Biso   1.000  H
  C76      1.0000 0.49580  0.35066  0.58970  Biso   1.000  C
  H57      1.0000 0.60117  0.29415  0.54030  Biso   1.000  H
  H58      1.0000 0.38145  0.41094  0.61800  Biso   1.000  H
  O12      1.0000 0.38350  0.41262  0.26341  Biso   1.000  O
  H59      1.0000 0.47834  0.48971  0.31510  Biso   1.000  H
  H60      1.0000 0.37324  0.51761  0.31372  Biso   1.000  H
  C77      1.0000 0.51232  0.33269  0.65983  Biso   1.000  C
  C78      1.0000 0.38912  0.42489  0.19248  Biso   1.000  C
  N11      1.0000 0.46681  0.37219  0.71472  Biso   1.000  N
  N12      1.0000 0.57090  0.27913  0.66303  Biso   1.000  N
  C79      1.0000 0.34404  0.36879  0.13232  Biso   1.000  C
  H61      1.0000 0.36102  0.47248  0.19328  Biso   1.000  H
  H62      1.0000 0.45655  0.43062  0.18268  Biso   1.000  H
  C80      1.0000 0.48988  0.35856  0.77771  Biso   1.000  C
  C81      1.0000 0.58657  0.26867  0.72772  Biso   1.000  C
  O13      1.0000 0.25881  0.33962  0.14468  Biso   1.000  O
  H63      1.0000 0.38723  0.32808  0.11809  Biso   1.000  H
  H64      1.0000 0.33600  0.39108  0.09139  Biso   1.000  H
  N13      1.0000 0.54953  0.30889  0.78725  Biso   1.000  N
  C82      1.0000 0.44613  0.40409  0.84080  Biso   1.000  C
  C83      1.0000 0.64728  0.20906  0.73641  Biso   1.000  C
  C84      1.0000 0.19184  0.37661  0.18182  Biso   1.000  C
  C85      1.0000 0.38373  0.45697  0.83478  Biso   1.000  C
  C86      1.0000 0.46589  0.39256  0.90880  Biso   1.000  C
  C87      1.0000 0.68080  0.16087  0.67768  Biso   1.000  C
  C88      1.0000 0.66492  0.19694  0.80318  Biso   1.000  C
  C89      1.0000 0.12213  0.30682  0.15971  Biso   1.000  C
  H65      1.0000 0.20733  0.39253  0.23373  Biso   1.000  H
  H66      1.0000 0.17153  0.41862  0.16360  Biso   1.000  H
  H67      1.0000 0.37033  0.46648  0.78970  Biso   1.000  H
  C90      1.0000 0.34102  0.49620  0.89478  Biso   1.000  C
  C91      1.0000 0.41952  0.43040  0.96571  Biso   1.000  C
  H68      1.0000 0.51134  0.35870  0.91482  Biso   1.000  H
  C92      1.0000 0.73076  0.10158  0.68450  Biso   1.000  C
  H69      1.0000 0.66916  0.16876  0.63169  Biso   1.000  H
  H70      1.0000 0.64172  0.22898  0.84432  Biso   1.000  H
  C93      1.0000 0.71669  0.13779  0.80952  Biso   1.000  C
  O14      1.0000 0.13861  0.24518  0.10599  Biso   1.000  O
  H71      1.0000 0.06074  0.32433  0.14708  Biso   1.000  H
  H72      1.0000 0.11285  0.28933  0.20330  Biso   1.000  H
  H73      1.0000 0.29811  0.53248  0.89052  Biso   1.000  H
  C94      1.0000 0.35971  0.48339  0.95932  Biso   1.000  C
  H74      1.0000 0.42904  0.41945  0.01064  Biso   1.000  H
  C95      1.0000 0.74747  0.09275  0.75160  Biso   1.000  C
  H75      1.0000 0.75297  0.06796  0.64390  Biso   1.000  H
  H76      1.0000 0.73005  0.12950  0.85519  Biso   1.000  H
  C96      1.0000 0.07124  0.18798  0.08340  Biso   1.000  C
  O15      1.0000 0.32261  0.52727  0.01911  Biso   1.000  O
  O16      1.0000 0.80478  0.03420  0.75986  Biso   1.000  O
  H77      1.0000 0.05391  0.18602  0.03299  Biso   1.000  H
  H78      1.0000 0.10263  0.14191  0.08329  Biso   1.000  H
  C97      1.0000 0.98049  0.18513  0.12081  Biso   1.000  C
  C98      1.0000 0.23339  0.50816  0.03606  Biso   1.000  C
  C99      1.0000 0.76124  0.96536  0.75293  Biso   1.000  C
  O17      1.0000 0.99089  0.18492  0.19270  Biso   1.000  O
  H79      1.0000 0.94262  0.14008  0.09539  Biso   1.000  H
  H80      1.0000 0.94454  0.22808  0.11708  Biso   1.000  H
  N14      1.0000 0.18761  0.44918  0.99630  Biso   1.000  N
  C100     1.0000 0.19650  0.55688  0.09723  Biso   1.000  C
  N15      1.0000 0.67061  0.95646  0.73630  Biso   1.000  N
  C101     1.0000 0.81971  0.91199  0.76630  Biso   1.000  C
  C102     1.0000 0.90560  0.16752  0.22200  Biso   1.000  C
  C103     1.0000 0.10191  0.43329  0.01394  Biso   1.000  C
  H81      1.0000 0.23163  0.59968  0.12425  Biso   1.000  H
  C104     1.0000 0.11096  0.53867  0.11375  Biso   1.000  C
  C105     1.0000 0.63045  0.88875  0.73108  Biso   1.000  C
  H82      1.0000 0.88490  0.92299  0.77883  Biso   1.000  H
  C106     1.0000 0.77980  0.84387  0.76092  Biso   1.000  C
  C107     1.0000 0.92302  0.17530  0.30061  Biso   1.000  C
  H83      1.0000 0.85706  0.20142  0.21428  Biso   1.000  H
  H84      1.0000 0.88264  0.11639  0.19829  Biso   1.000  H
  N16      1.0000 0.05624  0.37271  0.97067  Biso   1.000  N
  C108     1.0000 0.05974  0.47828  0.07368  Biso   1.000  C
  H85      1.0000 0.08410  0.56841  0.15468  Biso   1.000  H
  N17      1.0000 0.53722  0.87910  0.71056  Biso   1.000  N
  C109     1.0000 0.68374  0.82868  0.74291  Biso   1.000  C
  H86      1.0000 0.81732  0.80609  0.76950  Biso   1.000  H
  O18      1.0000 0.97820  0.11486  0.30775  Biso   1.000  O
  H87      1.0000 0.86239  0.17354  0.32411  Biso   1.000  H
  H88      1.0000 0.95739  0.22291  0.32288  Biso   1.000  H
  C110     1.0000 0.97170  0.35411  0.98628  Biso   1.000  C
  C111     1.0000 0.96234  0.45279  0.08748  Biso   1.000  C
  C112     1.0000 0.49960  0.81256  0.70241  Biso   1.000  C
  C113     1.0000 0.63533  0.76040  0.73321  Biso   1.000  C
  C114     1.0000 0.00179  0.11096  0.37590  Biso   1.000  C
  O19      1.0000 0.92241  0.29472  0.94392  Biso   1.000  O
  C115     1.0000 0.92087  0.39275  0.04464  Biso   1.000  C
  H89      1.0000 0.93034  0.47978  0.12707  Biso   1.000  H
  O20      1.0000 0.40419  0.79944  0.68189  Biso   1.000  O
  C116     1.0000 0.54333  0.75156  0.71563  Biso   1.000  C
  H90      1.0000 0.66840  0.71934  0.73929  Biso   1.000  H
  C117     1.0000 0.05949  0.05251  0.38001  Biso   1.000  C
  C118     1.0000 0.97784  0.16022  0.43628  Biso   1.000  C
  C119     1.0000 0.96590  0.25228  0.88349  Biso   1.000  C
  H91      1.0000 0.85904  0.37596  0.05263  Biso   1.000  H
  C120     1.0000 0.35096  0.86025  0.67390  Biso   1.000  C
  H92      1.0000 0.50913  0.70610  0.71211  Biso   1.000  H
  C121     1.0000 0.08651  0.04522  0.44582  Biso   1.000  C
  H93      1.0000 0.07893  0.01921  0.33812  Biso   1.000  H
  C122     1.0000 0.00804  0.15107  0.50172  Biso   1.000  C
  H94      1.0000 0.94092  0.20056  0.43340  Biso   1.000  H
  C123     1.0000 0.04493  0.21468  0.89052  Biso   1.000  C
  C124     1.0000 0.92379  0.24859  0.81879  Biso   1.000  C
  C125     1.0000 0.32021  0.86008  0.60510  Biso   1.000  C
  C126     1.0000 0.32894  0.91238  0.73278  Biso   1.000  C
  C127     1.0000 0.06039  0.09234  0.50780  Biso   1.000  C
  H95      1.0000 0.12498  0.00593  0.44902  Biso   1.000  H
  H96      1.0000 0.99243  0.18606  0.54371  Biso   1.000  H
  C128     1.0000 0.08018  0.16906  0.83100  Biso   1.000  C
  H97      1.0000 0.07499  0.22009  0.93608  Biso   1.000  H
  C129     1.0000 0.96190  0.20547  0.75842  Biso   1.000  C
  H98      1.0000 0.86935  0.27496  0.81501  Biso   1.000  H
  C130     1.0000 0.26047  0.91524  0.59881  Biso   1.000  C
  H99      1.0000 0.33893  0.82434  0.56471  Biso   1.000  H
  C131     1.0000 0.27104  0.96637  0.72511  Biso   1.000  C
  H100     1.0000 0.35336  0.91121  0.77872  Biso   1.000  H
  C132     1.0000 0.08919  0.08298  0.57862  Biso   1.000  C
  C133     1.0000 0.03879  0.16496  0.76391  Biso   1.000  C
  H101     1.0000 0.13257  0.14065  0.83558  Biso   1.000  H
  H102     1.0000 0.93451  0.20387  0.71269  Biso   1.000  H
  C134     1.0000 0.23644  0.96834  0.65711  Biso   1.000  C
  H103     1.0000 0.23576  0.91615  0.55288  Biso   1.000  H
  H104     1.0000 0.25419  0.00266  0.76593  Biso   1.000  H
  N18      1.0000 0.05000  0.12777  0.63596  Biso   1.000  N
  N19      1.0000 0.14957  0.03321  0.58427  Biso   1.000  N
  C135     1.0000 0.07892  0.11797  0.70033  Biso   1.000  C
  C136     1.0000 0.17096  0.02719  0.64981  Biso   1.000  C
  N20      1.0000 0.13807  0.06775  0.70896  Biso   1.000  N
  Ne1      1.0000 0.30517  0.20812  0.64395  Biso   1.000  Ne
  He1      1.0000 0.42206  0.10672  0.61944  Biso   1.000  He
  He2      1.0000 0.29413  0.21674  0.58933  Biso   1.000  He
  He3      1.0000 0.28897  0.20882  0.54600  Biso   1.000  He
  Ar1      1.0000 0.30133  0.20581  0.64366  Biso   1.000  Ar
  Ne2      1.0000 0.69490  0.79196  0.35606  Biso   1.000  Ne
  He4      1.0000 0.70866  0.78050  0.40909  Biso   1.000  He
  He5      1.0000 0.00000  0.00000  0.00000  Biso   1.000  He
  He6      1.0000 0.65471  0.81671  0.28104  Biso   1.000  He
  Ar2      1.0000 0.71070  0.78111  0.34607  Biso   1.000  Ar
