data_image0
_cell_length_a       31.007
_cell_length_b       16.644
_cell_length_c       18.379
_cell_angle_alpha    90
_cell_angle_beta     90
_cell_angle_gamma    90

_symmetry_space_group_name_H-M    "P 1"
_symmetry_int_tables_number       1

loop_
  _symmetry_equiv_pos_as_xyz
  'x, y, z'

loop_
  _atom_site_label
  _atom_site_occupancy
  _atom_site_fract_x
  _atom_site_fract_y
  _atom_site_fract_z
  _atom_site_thermal_displace_type
  _atom_site_B_iso_or_equiv
  _atom_site_type_symbol
  C1       1.0000 0.16758  0.48708  0.41101  Biso   1.000  C
  N1       1.0000 0.15139  0.40645  0.39393  Biso   1.000  N
  N2       1.0000 0.16738  0.50703  0.48702  Biso   1.000  N
  H1       1.0000 0.19631  0.49748  0.38800  Biso   1.000  H
  C2       1.0000 0.13197  0.54170  0.37929  Biso   1.000  C
  C3       1.0000 0.17980  0.33580  0.40040  Biso   1.000  C
  C4       1.0000 0.12030  0.40850  0.34322  Biso   1.000  C
  C5       1.0000 0.20263  0.48672  0.53670  Biso   1.000  C
  C6       1.0000 0.13413  0.55528  0.50612  Biso   1.000  C
  N3       1.0000 0.10788  0.48708  0.33386  Biso   1.000  N
  N4       1.0000 0.10956  0.56909  0.44469  Biso   1.000  N
  H2       1.0000 0.14429  0.58748  0.35078  Biso   1.000  H
  N5       1.0000 0.18257  0.30708  0.47358  Biso   1.000  N
  H3       1.0000 0.20899  0.35022  0.38310  Biso   1.000  H
  H4       1.0000 0.16870  0.29230  0.36879  Biso   1.000  H
  O1       1.0000 0.10543  0.35166  0.30861  Biso   1.000  O
  N6       1.0000 0.19992  0.40645  0.56641  Biso   1.000  N
  H5       1.0000 0.20270  0.52578  0.57729  Biso   1.000  H
  H6       1.0000 0.23030  0.49243  0.51042  Biso   1.000  H
  O2       1.0000 0.12694  0.58351  0.56690  Biso   1.000  O
  C7       1.0000 0.07927  0.51478  0.27602  Biso   1.000  C
  C8       1.0000 0.07727  0.63140  0.44409  Biso   1.000  C
  C9       1.0000 0.21302  0.33562  0.52691  Biso   1.000  C
  C10      1.0000 0.17074  0.22771  0.48822  Biso   1.000  C
  C11      1.0000 0.18780  0.38891  0.63790  Biso   1.000  C
  N7       1.0000 0.03577  0.53311  0.30100  Biso   1.000  N
  H7       1.0000 0.07760  0.47278  0.23788  Biso   1.000  H
  H8       1.0000 0.09179  0.56363  0.25360  Biso   1.000  H
  N8       1.0000 0.03596  0.60382  0.41640  Biso   1.000  N
  H9       1.0000 0.07331  0.65189  0.49421  Biso   1.000  H
  H10      1.0000 0.08759  0.67652  0.41362  Biso   1.000  H
  C12      1.0000 0.21344  0.26911  0.58551  Biso   1.000  C
  H11      1.0000 0.24230  0.34283  0.50498  Biso   1.000  H
  O3       1.0000 0.15048  0.18517  0.44910  Biso   1.000  O
  N9       1.0000 0.18705  0.20746  0.55558  Biso   1.000  N
  N10      1.0000 0.19479  0.30978  0.64862  Biso   1.000  N
  O4       1.0000 0.17403  0.43812  0.68143  Biso   1.000  O
  C13      1.0000 0.00000  0.49033  0.27662  Biso   1.000  C
  C14      1.0000 0.02506  0.60508  0.33979  Biso   1.000  C
  C15      1.0000 0.00000  0.60899  0.46150  Biso   1.000  C
  H12      1.0000 0.24330  0.24958  0.59563  Biso   1.000  H
  C16      1.0000 0.19031  0.12311  0.57740  Biso   1.000  C
  C17      1.0000 0.19299  0.27259  0.71919  Biso   1.000  C
  O5       1.0000 0.00000  0.42988  0.24169  Biso   1.000  O
  N11      1.0000 0.96423  0.53311  0.30100  Biso   1.000  N
  H13      1.0000 0.03689  0.65381  0.31509  Biso   1.000  H
  C18      1.0000 0.97494  0.60508  0.33979  Biso   1.000  C
  O6       1.0000 0.00000  0.61710  0.52609  Biso   1.000  O
  N12      1.0000 0.96404  0.60382  0.41640  Biso   1.000  N
  N13      1.0000 0.16006  0.10250  0.63583  Biso   1.000  N
  H14      1.0000 0.18451  0.08850  0.53469  Biso   1.000  H
  H15      1.0000 0.22011  0.11211  0.59399  Biso   1.000  H
  N14      1.0000 0.15896  0.21155  0.72479  Biso   1.000  N
  H16      1.0000 0.22121  0.24730  0.72980  Biso   1.000  H
  H17      1.0000 0.18789  0.31459  0.75652  Biso   1.000  H
  C19      1.0000 0.92073  0.51478  0.27602  Biso   1.000  C
  H18      1.0000 0.96311  0.65381  0.31509  Biso   1.000  H
  C20      1.0000 0.92273  0.63140  0.44409  Biso   1.000  C
  C21      1.0000 0.16761  0.12749  0.71081  Biso   1.000  C
  C22      1.0000 0.12697  0.05041  0.62969  Biso   1.000  C
  C23      1.0000 0.12558  0.22122  0.77268  Biso   1.000  C
  N15      1.0000 0.89212  0.48708  0.33386  Biso   1.000  N
  H19      1.0000 0.92240  0.47278  0.23788  Biso   1.000  H
  H20      1.0000 0.90821  0.56363  0.25360  Biso   1.000  H
  N16      1.0000 0.89044  0.56909  0.44469  Biso   1.000  N
  H21      1.0000 0.92669  0.65189  0.49421  Biso   1.000  H
  H22      1.0000 0.91241  0.67652  0.41362  Biso   1.000  H
  C24      1.0000 0.13181  0.08159  0.75380  Biso   1.000  C
  H23      1.0000 0.19708  0.11181  0.72762  Biso   1.000  H
  O7       1.0000 0.11601  0.01736  0.57294  Biso   1.000  O
  N17      1.0000 0.10936  0.03779  0.69607  Biso   1.000  N
  O8       1.0000 0.11394  0.28431  0.80059  Biso   1.000  O
  N18      1.0000 0.10710  0.14738  0.78650  Biso   1.000  N
  C25      1.0000 0.86803  0.54170  0.37929  Biso   1.000  C
  C26      1.0000 0.87970  0.40850  0.34322  Biso   1.000  C
  C27      1.0000 0.86587  0.55528  0.50612  Biso   1.000  C
  H24      1.0000 0.14419  0.04458  0.79139  Biso   1.000  H
  C28      1.0000 0.07779  0.97669  0.71168  Biso   1.000  C
  C29      1.0000 0.07847  0.13308  0.84667  Biso   1.000  C
  C30      1.0000 0.83242  0.48708  0.41101  Biso   1.000  C
  H25      1.0000 0.85571  0.58748  0.35078  Biso   1.000  H
  O9       1.0000 0.89457  0.35166  0.30861  Biso   1.000  O
  N19      1.0000 0.84861  0.40645  0.39393  Biso   1.000  N
  O10      1.0000 0.87306  0.58351  0.56690  Biso   1.000  O
  N20      1.0000 0.83262  0.50703  0.48702  Biso   1.000  N
  N21      1.0000 0.03602  0.00979  0.72871  Biso   1.000  N
  H26      1.0000 0.07511  0.94070  0.66908  Biso   1.000  H
  H27      1.0000 0.08792  0.94412  0.75341  Biso   1.000  H
  N22      1.0000 0.03554  0.11043  0.82703  Biso   1.000  N
  H28      1.0000 0.07701  0.18253  0.87660  Biso   1.000  H
  H29      1.0000 0.09091  0.09012  0.87741  Biso   1.000  H
  H30      1.0000 0.80369  0.49748  0.38800  Biso   1.000  H
  C31      1.0000 0.82020  0.33580  0.40040  Biso   1.000  C
  C32      1.0000 0.79737  0.48672  0.53670  Biso   1.000  C
  C33      1.0000 0.02512  0.02800  0.80548  Biso   1.000  C
  C34      1.0000 0.00000  0.99429  0.68932  Biso   1.000  C
  C35      1.0000 0.00000  0.15249  0.84548  Biso   1.000  C
  N23      1.0000 0.81743  0.30708  0.47358  Biso   1.000  N
  H31      1.0000 0.79101  0.35022  0.38310  Biso   1.000  H
  H32      1.0000 0.83130  0.29230  0.36879  Biso   1.000  H
  N24      1.0000 0.80008  0.40645  0.56641  Biso   1.000  N
  H33      1.0000 0.79730  0.52578  0.57729  Biso   1.000  H
  H34      1.0000 0.76970  0.49243  0.51042  Biso   1.000  H
  C36      1.0000 0.97488  0.02800  0.80548  Biso   1.000  C
  H35      1.0000 0.03731  0.98738  0.83993  Biso   1.000  H
  N25      1.0000 0.96398  0.00979  0.72871  Biso   1.000  N
  O11      1.0000 0.00000  0.96810  0.62707  Biso   1.000  O
  O12      1.0000 0.00000  0.22110  0.87459  Biso   1.000  O
  N26      1.0000 0.96446  0.11043  0.82703  Biso   1.000  N
  C37      1.0000 0.78698  0.33562  0.52691  Biso   1.000  C
  C38      1.0000 0.82926  0.22771  0.48822  Biso   1.000  C
  C39      1.0000 0.81220  0.38891  0.63790  Biso   1.000  C
  H36      1.0000 0.96269  0.98738  0.83993  Biso   1.000  H
  C40      1.0000 0.92221  0.97669  0.71168  Biso   1.000  C
  C41      1.0000 0.92153  0.13308  0.84667  Biso   1.000  C
  C42      1.0000 0.78656  0.26911  0.58551  Biso   1.000  C
  H37      1.0000 0.75770  0.34283  0.50498  Biso   1.000  H
  O13      1.0000 0.84952  0.18517  0.44910  Biso   1.000  O
  N27      1.0000 0.81295  0.20746  0.55558  Biso   1.000  N
  O14      1.0000 0.82597  0.43812  0.68143  Biso   1.000  O
  N28      1.0000 0.80521  0.30978  0.64862  Biso   1.000  N
  H38      1.0000 0.92489  0.94070  0.66908  Biso   1.000  H
  H39      1.0000 0.91208  0.94412  0.75341  Biso   1.000  H
  N29      1.0000 0.89064  0.03779  0.69607  Biso   1.000  N
  N30      1.0000 0.89290  0.14738  0.78650  Biso   1.000  N
  H40      1.0000 0.92299  0.18253  0.87660  Biso   1.000  H
  H41      1.0000 0.90909  0.09012  0.87741  Biso   1.000  H
  H42      1.0000 0.75670  0.24958  0.59563  Biso   1.000  H
  C43      1.0000 0.80969  0.12311  0.57740  Biso   1.000  C
  C44      1.0000 0.80701  0.27259  0.71919  Biso   1.000  C
  C45      1.0000 0.86819  0.08159  0.75380  Biso   1.000  C
  C46      1.0000 0.87303  0.05041  0.62969  Biso   1.000  C
  C47      1.0000 0.87442  0.22122  0.77268  Biso   1.000  C
  N31      1.0000 0.83994  0.10250  0.63583  Biso   1.000  N
  H43      1.0000 0.81549  0.08850  0.53469  Biso   1.000  H
  H44      1.0000 0.77989  0.11211  0.59399  Biso   1.000  H
  N32      1.0000 0.84104  0.21155  0.72479  Biso   1.000  N
  H45      1.0000 0.77879  0.24730  0.72980  Biso   1.000  H
  H46      1.0000 0.81211  0.31459  0.75652  Biso   1.000  H
  H47      1.0000 0.85581  0.04458  0.79139  Biso   1.000  H
  C48      1.0000 0.83239  0.12749  0.71081  Biso   1.000  C
  O15      1.0000 0.88399  0.01736  0.57294  Biso   1.000  O
  O16      1.0000 0.88606  0.28431  0.80059  Biso   1.000  O
  H48      1.0000 0.80292  0.11181  0.72762  Biso   1.000  H
  O17      1.0000 0.17403  0.56188  0.18140  Biso   1.000  O
  C49      1.0000 0.18780  0.61109  0.13787  Biso   1.000  C
  N33      1.0000 0.19479  0.69022  0.14859  Biso   1.000  N
  N34      1.0000 0.19992  0.59355  0.06643  Biso   1.000  N
  C50      1.0000 0.19299  0.72741  0.21922  Biso   1.000  C
  C51      1.0000 0.21344  0.73089  0.08548  Biso   1.000  C
  C52      1.0000 0.21302  0.66438  0.02688  Biso   1.000  C
  C53      1.0000 0.20263  0.51328  0.03673  Biso   1.000  C
  N35      1.0000 0.15896  0.78845  0.22482  Biso   1.000  N
  H49      1.0000 0.22121  0.75270  0.22977  Biso   1.000  H
  H50      1.0000 0.18789  0.68541  0.25649  Biso   1.000  H
  N36      1.0000 0.18705  0.79254  0.05555  Biso   1.000  N
  H51      1.0000 0.24330  0.75042  0.09560  Biso   1.000  H
  H52      1.0000 0.24230  0.65717  0.00501  Biso   1.000  H
  N37      1.0000 0.18257  0.69292  0.97356  Biso   1.000  N
  H53      1.0000 0.20270  0.47422  0.07732  Biso   1.000  H
  H54      1.0000 0.23030  0.50757  0.01039  Biso   1.000  H
  N38      1.0000 0.16738  0.49297  0.98700  Biso   1.000  N
  C54      1.0000 0.12558  0.77878  0.27270  Biso   1.000  C
  C55      1.0000 0.16761  0.87251  0.21078  Biso   1.000  C
  C56      1.0000 0.19031  0.87689  0.07743  Biso   1.000  C
  C57      1.0000 0.17074  0.77229  0.98819  Biso   1.000  C
  C58      1.0000 0.17980  0.66420  0.90038  Biso   1.000  C
  C59      1.0000 0.13413  0.44472  0.00609  Biso   1.000  C
  C60      1.0000 0.16758  0.51292  0.91099  Biso   1.000  C
  O18      1.0000 0.11394  0.71569  0.30061  Biso   1.000  O
  N39      1.0000 0.10710  0.85262  0.28652  Biso   1.000  N
  N40      1.0000 0.16006  0.89750  0.13581  Biso   1.000  N
  C61      1.0000 0.13181  0.91841  0.25382  Biso   1.000  C
  H55      1.0000 0.19708  0.88819  0.22760  Biso   1.000  H
  H56      1.0000 0.18451  0.91150  0.03471  Biso   1.000  H
  H57      1.0000 0.22011  0.88789  0.09402  Biso   1.000  H
  O19      1.0000 0.15048  0.81483  0.94913  Biso   1.000  O
  N41      1.0000 0.15139  0.59355  0.89390  Biso   1.000  N
  H58      1.0000 0.20899  0.64978  0.88307  Biso   1.000  H
  H59      1.0000 0.16870  0.70770  0.86882  Biso   1.000  H
  O20      1.0000 0.12694  0.41649  0.06687  Biso   1.000  O
  N42      1.0000 0.10956  0.43091  0.94472  Biso   1.000  N
  H60      1.0000 0.19631  0.50252  0.88802  Biso   1.000  H
  C62      1.0000 0.13197  0.45830  0.87932  Biso   1.000  C
  C63      1.0000 0.07847  0.86692  0.34670  Biso   1.000  C
  C64      1.0000 0.12697  0.94959  0.12971  Biso   1.000  C
  N43      1.0000 0.10936  0.96221  0.19604  Biso   1.000  N
  H61      1.0000 0.14419  0.95542  0.29142  Biso   1.000  H
  C65      1.0000 0.12030  0.59150  0.84319  Biso   1.000  C
  C66      1.0000 0.07727  0.36860  0.94412  Biso   1.000  C
  N44      1.0000 0.10788  0.51292  0.83389  Biso   1.000  N
  H62      1.0000 0.14429  0.41252  0.85081  Biso   1.000  H
  N45      1.0000 0.03554  0.88957  0.32706  Biso   1.000  N
  H63      1.0000 0.07701  0.81747  0.37663  Biso   1.000  H
  H64      1.0000 0.09091  0.90988  0.37739  Biso   1.000  H
  O21      1.0000 0.11601  0.98264  0.07291  Biso   1.000  O
  C67      1.0000 0.07779  0.02331  0.21171  Biso   1.000  C
  O22      1.0000 0.10543  0.64834  0.80864  Biso   1.000  O
  N46      1.0000 0.03596  0.39618  0.91643  Biso   1.000  N
  H65      1.0000 0.07331  0.34811  0.99418  Biso   1.000  H
  H66      1.0000 0.08759  0.32348  0.91360  Biso   1.000  H
  C68      1.0000 0.07927  0.48522  0.77599  Biso   1.000  C
  C69      1.0000 0.00000  0.84751  0.34550  Biso   1.000  C
  C70      1.0000 0.02512  0.97200  0.30551  Biso   1.000  C
  N47      1.0000 0.03602  0.99021  0.22868  Biso   1.000  N
  H67      1.0000 0.07511  0.05930  0.16911  Biso   1.000  H
  H68      1.0000 0.08792  0.05588  0.25339  Biso   1.000  H
  C71      1.0000 0.00000  0.39101  0.96148  Biso   1.000  C
  C72      1.0000 0.02506  0.39492  0.83982  Biso   1.000  C
  N48      1.0000 0.03577  0.46689  0.80102  Biso   1.000  N
  H69      1.0000 0.07760  0.52722  0.73791  Biso   1.000  H
  H70      1.0000 0.09179  0.43637  0.75358  Biso   1.000  H
  O23      1.0000 0.00000  0.77890  0.37461  Biso   1.000  O
  N49      1.0000 0.96446  0.88957  0.32706  Biso   1.000  N
  C73      1.0000 0.97488  0.97200  0.30551  Biso   1.000  C
  H71      1.0000 0.03731  0.01262  0.33990  Biso   1.000  H
  C74      1.0000 0.00000  0.00571  0.18929  Biso   1.000  C
  O24      1.0000 0.00000  0.38290  0.02612  Biso   1.000  O
  N50      1.0000 0.96404  0.39618  0.91643  Biso   1.000  N
  C75      1.0000 0.97494  0.39492  0.83982  Biso   1.000  C
  H72      1.0000 0.03689  0.34619  0.81512  Biso   1.000  H
  C76      1.0000 0.00000  0.50967  0.77659  Biso   1.000  C
  C77      1.0000 0.92153  0.86692  0.34670  Biso   1.000  C
  N51      1.0000 0.96398  0.99021  0.22868  Biso   1.000  N
  H73      1.0000 0.96269  0.01262  0.33990  Biso   1.000  H
  O25      1.0000 0.00000  0.03190  0.12710  Biso   1.000  O
  C78      1.0000 0.92273  0.36860  0.94412  Biso   1.000  C
  N52      1.0000 0.96423  0.46689  0.80102  Biso   1.000  N
  H74      1.0000 0.96311  0.34619  0.81512  Biso   1.000  H
  O26      1.0000 0.00000  0.57012  0.74172  Biso   1.000  O
  N53      1.0000 0.89290  0.85262  0.28652  Biso   1.000  N
  H75      1.0000 0.92299  0.81747  0.37663  Biso   1.000  H
  H76      1.0000 0.90909  0.90988  0.37739  Biso   1.000  H
  C79      1.0000 0.92221  0.02331  0.21171  Biso   1.000  C
  N54      1.0000 0.89044  0.43091  0.94472  Biso   1.000  N
  H77      1.0000 0.92669  0.34811  0.99418  Biso   1.000  H
  H78      1.0000 0.91241  0.32348  0.91360  Biso   1.000  H
  C80      1.0000 0.92073  0.48522  0.77599  Biso   1.000  C
  C81      1.0000 0.87442  0.77878  0.27270  Biso   1.000  C
  C82      1.0000 0.86819  0.91841  0.25382  Biso   1.000  C
  N55      1.0000 0.89064  0.96221  0.19604  Biso   1.000  N
  H79      1.0000 0.92489  0.05930  0.16911  Biso   1.000  H
  H80      1.0000 0.91208  0.05588  0.25339  Biso   1.000  H
  C83      1.0000 0.86803  0.45830  0.87932  Biso   1.000  C
  C84      1.0000 0.86587  0.44472  0.00609  Biso   1.000  C
  N56      1.0000 0.89212  0.51292  0.83389  Biso   1.000  N
  H81      1.0000 0.92240  0.52722  0.73791  Biso   1.000  H
  H82      1.0000 0.90821  0.43637  0.75358  Biso   1.000  H
  O27      1.0000 0.88606  0.71569  0.30061  Biso   1.000  O
  N57      1.0000 0.84104  0.78845  0.22482  Biso   1.000  N
  H83      1.0000 0.85581  0.95542  0.29142  Biso   1.000  H
  C85      1.0000 0.83239  0.87251  0.21078  Biso   1.000  C
  C86      1.0000 0.87303  0.94959  0.12971  Biso   1.000  C
  C87      1.0000 0.83242  0.51292  0.91099  Biso   1.000  C
  H84      1.0000 0.85571  0.41252  0.85081  Biso   1.000  H
  N58      1.0000 0.83262  0.49297  0.98700  Biso   1.000  N
  O28      1.0000 0.87306  0.41649  0.06687  Biso   1.000  O
  C88      1.0000 0.87970  0.59150  0.84319  Biso   1.000  C
  C89      1.0000 0.80701  0.72741  0.21922  Biso   1.000  C
  N59      1.0000 0.83994  0.89750  0.13581  Biso   1.000  N
  H85      1.0000 0.80292  0.88819  0.22760  Biso   1.000  H
  O29      1.0000 0.88399  0.98264  0.07291  Biso   1.000  O
  N60      1.0000 0.84861  0.59355  0.89390  Biso   1.000  N
  H86      1.0000 0.80369  0.50252  0.88802  Biso   1.000  H
  C90      1.0000 0.79737  0.51328  0.03673  Biso   1.000  C
  O30      1.0000 0.89457  0.64834  0.80864  Biso   1.000  O
  N61      1.0000 0.80521  0.69022  0.14859  Biso   1.000  N
  H87      1.0000 0.77879  0.75270  0.22977  Biso   1.000  H
  H88      1.0000 0.81211  0.68541  0.25649  Biso   1.000  H
  C91      1.0000 0.80969  0.87689  0.07743  Biso   1.000  C
  C92      1.0000 0.82020  0.66420  0.90038  Biso   1.000  C
  N62      1.0000 0.80008  0.59355  0.06643  Biso   1.000  N
  H89      1.0000 0.79730  0.47422  0.07732  Biso   1.000  H
  H90      1.0000 0.76970  0.50757  0.01039  Biso   1.000  H
  C93      1.0000 0.81220  0.61109  0.13787  Biso   1.000  C
  C94      1.0000 0.78656  0.73089  0.08548  Biso   1.000  C
  N63      1.0000 0.81295  0.79254  0.05555  Biso   1.000  N
  H91      1.0000 0.81549  0.91150  0.03471  Biso   1.000  H
  H92      1.0000 0.77989  0.88789  0.09402  Biso   1.000  H
  N64      1.0000 0.81743  0.69292  0.97356  Biso   1.000  N
  H93      1.0000 0.79101  0.64978  0.88307  Biso   1.000  H
  H94      1.0000 0.83130  0.70770  0.86882  Biso   1.000  H
  C95      1.0000 0.78698  0.66438  0.02688  Biso   1.000  C
  O31      1.0000 0.82597  0.56188  0.18140  Biso   1.000  O
  H95      1.0000 0.75670  0.75042  0.09560  Biso   1.000  H
  C96      1.0000 0.82926  0.77229  0.98819  Biso   1.000  C
  H96      1.0000 0.75770  0.65717  0.00501  Biso   1.000  H
  O32      1.0000 0.84952  0.81483  0.94913  Biso   1.000  O
  C97      1.0000 0.33238  0.37251  0.21078  Biso   1.000  C
  N65      1.0000 0.34105  0.28845  0.22482  Biso   1.000  N
  N66      1.0000 0.33992  0.39750  0.13581  Biso   1.000  N
  C98      1.0000 0.36821  0.41841  0.25382  Biso   1.000  C
  H97      1.0000 0.30290  0.38819  0.22760  Biso   1.000  H
  C99      1.0000 0.30700  0.22741  0.21922  Biso   1.000  C
  C100     1.0000 0.37443  0.27878  0.27270  Biso   1.000  C
  C101     1.0000 0.37304  0.44959  0.12971  Biso   1.000  C
  C102     1.0000 0.30970  0.37689  0.07743  Biso   1.000  C
  N67      1.0000 0.39288  0.35262  0.28652  Biso   1.000  N
  N68      1.0000 0.39065  0.46221  0.19604  Biso   1.000  N
  H98      1.0000 0.35579  0.45542  0.29142  Biso   1.000  H
  N69      1.0000 0.30519  0.19022  0.14859  Biso   1.000  N
  H99      1.0000 0.27881  0.25270  0.22977  Biso   1.000  H
  H100     1.0000 0.31209  0.18541  0.25649  Biso   1.000  H
  O33      1.0000 0.38607  0.21569  0.30061  Biso   1.000  O
  O34      1.0000 0.38401  0.48264  0.07291  Biso   1.000  O
  N70      1.0000 0.31293  0.29254  0.05555  Biso   1.000  N
  H101     1.0000 0.31551  0.41150  0.03471  Biso   1.000  H
  H102     1.0000 0.27990  0.38789  0.09402  Biso   1.000  H
  C103     1.0000 0.42152  0.36692  0.34670  Biso   1.000  C
  C104     1.0000 0.42223  0.52331  0.21171  Biso   1.000  C
  C105     1.0000 0.31222  0.11109  0.13787  Biso   1.000  C
  C106     1.0000 0.28658  0.23089  0.08548  Biso   1.000  C
  C107     1.0000 0.32925  0.27229  0.98819  Biso   1.000  C
  N71      1.0000 0.46448  0.38957  0.32706  Biso   1.000  N
  H103     1.0000 0.42300  0.31747  0.37663  Biso   1.000  H
  H104     1.0000 0.40910  0.40988  0.37739  Biso   1.000  H
  N72      1.0000 0.46399  0.49021  0.22868  Biso   1.000  N
  H105     1.0000 0.42490  0.55930  0.16911  Biso   1.000  H
  H106     1.0000 0.41210  0.55588  0.25339  Biso   1.000  H
  O35      1.0000 0.32599  0.06188  0.18140  Biso   1.000  O
  N73      1.0000 0.30006  0.09355  0.06643  Biso   1.000  N
  H107     1.0000 0.25668  0.25042  0.09560  Biso   1.000  H
  C108     1.0000 0.28697  0.16438  0.02688  Biso   1.000  C
  N74      1.0000 0.31741  0.19292  0.97356  Biso   1.000  N
  O36      1.0000 0.34953  0.31483  0.94913  Biso   1.000  O
  C109     1.0000 0.50002  0.34751  0.34550  Biso   1.000  C
  C110     1.0000 0.47489  0.47200  0.30551  Biso   1.000  C
  C111     1.0000 0.50002  0.50571  0.18929  Biso   1.000  C
  C112     1.0000 0.29738  0.01328  0.03673  Biso   1.000  C
  H108     1.0000 0.25772  0.15717  0.00501  Biso   1.000  H
  C113     1.0000 0.32019  0.16420  0.90038  Biso   1.000  C
  O37      1.0000 0.50002  0.27890  0.37461  Biso   1.000  O
  N75      1.0000 0.53552  0.38957  0.32706  Biso   1.000  N
  C114     1.0000 0.52511  0.47200  0.30551  Biso   1.000  C
  H109     1.0000 0.46270  0.51262  0.33990  Biso   1.000  H
  N76      1.0000 0.53601  0.49021  0.22868  Biso   1.000  N
  O38      1.0000 0.50002  0.53190  0.12710  Biso   1.000  O
  H110     1.0000 0.26971  0.00757  0.01039  Biso   1.000  H
  N77      1.0000 0.33263  0.99297  0.98700  Biso   1.000  N
  H111     1.0000 0.29729  0.97422  0.07732  Biso   1.000  H
  N78      1.0000 0.34863  0.09355  0.89390  Biso   1.000  N
  H112     1.0000 0.29100  0.14978  0.88307  Biso   1.000  H
  H113     1.0000 0.33131  0.20770  0.86882  Biso   1.000  H
  C115     1.0000 0.57848  0.36692  0.34670  Biso   1.000  C
  H114     1.0000 0.53730  0.51262  0.33990  Biso   1.000  H
  C116     1.0000 0.57777  0.52331  0.21171  Biso   1.000  C
  C117     1.0000 0.36589  0.94472  0.00609  Biso   1.000  C
  C118     1.0000 0.33244  0.01292  0.91099  Biso   1.000  C
  C119     1.0000 0.37972  0.09150  0.84319  Biso   1.000  C
  N79      1.0000 0.60712  0.35262  0.28652  Biso   1.000  N
  H115     1.0000 0.57700  0.31747  0.37663  Biso   1.000  H
  H116     1.0000 0.59090  0.40988  0.37739  Biso   1.000  H
  N80      1.0000 0.60935  0.46221  0.19604  Biso   1.000  N
  H117     1.0000 0.57510  0.55930  0.16911  Biso   1.000  H
  H118     1.0000 0.58790  0.55588  0.25339  Biso   1.000  H
  N81      1.0000 0.39046  0.93091  0.94472  Biso   1.000  N
  O39      1.0000 0.37304  0.91649  0.06687  Biso   1.000  O
  C120     1.0000 0.36801  0.95830  0.87932  Biso   1.000  C
  H119     1.0000 0.30371  0.00252  0.88802  Biso   1.000  H
  N82      1.0000 0.39214  0.01292  0.83389  Biso   1.000  N
  O40      1.0000 0.39459  0.14834  0.80864  Biso   1.000  O
  C121     1.0000 0.62557  0.27878  0.27270  Biso   1.000  C
  C122     1.0000 0.63179  0.41841  0.25382  Biso   1.000  C
  C123     1.0000 0.62696  0.44959  0.12971  Biso   1.000  C
  C124     1.0000 0.42271  0.86860  0.94412  Biso   1.000  C
  H120     1.0000 0.35569  0.91252  0.85081  Biso   1.000  H
  C125     1.0000 0.42074  0.98522  0.77599  Biso   1.000  C
  O41      1.0000 0.61393  0.21569  0.30061  Biso   1.000  O
  N83      1.0000 0.65895  0.28845  0.22482  Biso   1.000  N
  H121     1.0000 0.64421  0.45542  0.29142  Biso   1.000  H
  C126     1.0000 0.66762  0.37251  0.21078  Biso   1.000  C
  N84      1.0000 0.66008  0.39750  0.13581  Biso   1.000  N
  O42      1.0000 0.61599  0.48264  0.07291  Biso   1.000  O
  N85      1.0000 0.46406  0.89618  0.91643  Biso   1.000  N
  H122     1.0000 0.42671  0.84811  0.99418  Biso   1.000  H
  H123     1.0000 0.41239  0.82348  0.91360  Biso   1.000  H
  N86      1.0000 0.46425  0.96689  0.80102  Biso   1.000  N
  H124     1.0000 0.40820  0.93637  0.75358  Biso   1.000  H
  H125     1.0000 0.42239  0.02722  0.73791  Biso   1.000  H
  C127     1.0000 0.69300  0.22741  0.21922  Biso   1.000  C
  H126     1.0000 0.69710  0.38819  0.22760  Biso   1.000  H
  C128     1.0000 0.69030  0.37689  0.07743  Biso   1.000  C
  C129     1.0000 0.50002  0.89101  0.96148  Biso   1.000  C
  C130     1.0000 0.47493  0.89492  0.83982  Biso   1.000  C
  C131     1.0000 0.50002  0.00967  0.77659  Biso   1.000  C
  N87      1.0000 0.69481  0.19022  0.14859  Biso   1.000  N
  H127     1.0000 0.72119  0.25270  0.22977  Biso   1.000  H
  H128     1.0000 0.68791  0.18541  0.25649  Biso   1.000  H
  N88      1.0000 0.68707  0.29254  0.05555  Biso   1.000  N
  H129     1.0000 0.68449  0.41150  0.03471  Biso   1.000  H
  H130     1.0000 0.72010  0.38789  0.09402  Biso   1.000  H
  N89      1.0000 0.53594  0.89618  0.91643  Biso   1.000  N
  O43      1.0000 0.50002  0.88290  0.02612  Biso   1.000  O
  C132     1.0000 0.52507  0.89492  0.83982  Biso   1.000  C
  H131     1.0000 0.46309  0.84619  0.81512  Biso   1.000  H
  N90      1.0000 0.53575  0.96689  0.80102  Biso   1.000  N
  O44      1.0000 0.50002  0.07012  0.74172  Biso   1.000  O
  C133     1.0000 0.68778  0.11109  0.13787  Biso   1.000  C
  C134     1.0000 0.71342  0.23089  0.08548  Biso   1.000  C
  C135     1.0000 0.67075  0.27229  0.98819  Biso   1.000  C
  C136     1.0000 0.57729  0.86860  0.94412  Biso   1.000  C
  H132     1.0000 0.53691  0.84619  0.81512  Biso   1.000  H
  C137     1.0000 0.57926  0.98522  0.77599  Biso   1.000  C
  O45      1.0000 0.67401  0.06188  0.18140  Biso   1.000  O
  N91      1.0000 0.69994  0.09355  0.06643  Biso   1.000  N
  H133     1.0000 0.74332  0.25042  0.09560  Biso   1.000  H
  C138     1.0000 0.71303  0.16438  0.02688  Biso   1.000  C
  N92      1.0000 0.68259  0.19292  0.97356  Biso   1.000  N
  O46      1.0000 0.65047  0.31483  0.94913  Biso   1.000  O
  N93      1.0000 0.60954  0.93091  0.94472  Biso   1.000  N
  H134     1.0000 0.57329  0.84811  0.99418  Biso   1.000  H
  H135     1.0000 0.58761  0.82348  0.91360  Biso   1.000  H
  H136     1.0000 0.59180  0.93637  0.75358  Biso   1.000  H
  N94      1.0000 0.60786  0.01292  0.83389  Biso   1.000  N
  H137     1.0000 0.57761  0.02722  0.73791  Biso   1.000  H
  C139     1.0000 0.70262  0.01328  0.03673  Biso   1.000  C
  H138     1.0000 0.74228  0.15717  0.00501  Biso   1.000  H
  C140     1.0000 0.67981  0.16420  0.90038  Biso   1.000  C
  C141     1.0000 0.63199  0.95830  0.87932  Biso   1.000  C
  C142     1.0000 0.63411  0.94472  0.00609  Biso   1.000  C
  C143     1.0000 0.62028  0.09150  0.84319  Biso   1.000  C
  N95      1.0000 0.66737  0.99297  0.98700  Biso   1.000  N
  H139     1.0000 0.73029  0.00757  0.01039  Biso   1.000  H
  H140     1.0000 0.70271  0.97422  0.07732  Biso   1.000  H
  N96      1.0000 0.65137  0.09355  0.89390  Biso   1.000  N
  H141     1.0000 0.70900  0.14978  0.88307  Biso   1.000  H
  H142     1.0000 0.66869  0.20770  0.86882  Biso   1.000  H
  H143     1.0000 0.64431  0.91252  0.85081  Biso   1.000  H
  C144     1.0000 0.66756  0.01292  0.91099  Biso   1.000  C
  O47      1.0000 0.62696  0.91649  0.06687  Biso   1.000  O
  O48      1.0000 0.60541  0.14834  0.80864  Biso   1.000  O
  H144     1.0000 0.69629  0.00252  0.88802  Biso   1.000  H
  C145     1.0000 0.30970  0.62311  0.57740  Biso   1.000  C
  N97      1.0000 0.33992  0.60250  0.63583  Biso   1.000  N
  N98      1.0000 0.31293  0.70746  0.55558  Biso   1.000  N
  H145     1.0000 0.31551  0.58850  0.53469  Biso   1.000  H
  H146     1.0000 0.27990  0.61211  0.59399  Biso   1.000  H
  C146     1.0000 0.37304  0.55041  0.62969  Biso   1.000  C
  C147     1.0000 0.33238  0.62749  0.71081  Biso   1.000  C
  C148     1.0000 0.28658  0.76911  0.58551  Biso   1.000  C
  C149     1.0000 0.32925  0.72771  0.48822  Biso   1.000  C
  O49      1.0000 0.38401  0.51736  0.57294  Biso   1.000  O
  N99      1.0000 0.39065  0.53779  0.69607  Biso   1.000  N
  C150     1.0000 0.36821  0.58159  0.75380  Biso   1.000  C
  N100     1.0000 0.34105  0.71155  0.72479  Biso   1.000  N
  H147     1.0000 0.30290  0.61181  0.72762  Biso   1.000  H
  N101     1.0000 0.30519  0.80978  0.64862  Biso   1.000  N
  H148     1.0000 0.25668  0.74958  0.59563  Biso   1.000  H
  C151     1.0000 0.28697  0.83562  0.52691  Biso   1.000  C
  O50      1.0000 0.34953  0.68517  0.44910  Biso   1.000  O
  N102     1.0000 0.31741  0.80708  0.47358  Biso   1.000  N
  C152     1.0000 0.42223  0.47669  0.71168  Biso   1.000  C
  N103     1.0000 0.39288  0.64738  0.78650  Biso   1.000  N
  H149     1.0000 0.35579  0.54458  0.79139  Biso   1.000  H
  C153     1.0000 0.37443  0.72122  0.77268  Biso   1.000  C
  C154     1.0000 0.30700  0.77259  0.71919  Biso   1.000  C
  C155     1.0000 0.31222  0.88891  0.63790  Biso   1.000  C
  N104     1.0000 0.30006  0.90645  0.56641  Biso   1.000  N
  H150     1.0000 0.25772  0.84283  0.50498  Biso   1.000  H
  C156     1.0000 0.32019  0.83580  0.40040  Biso   1.000  C
  N105     1.0000 0.46399  0.50979  0.72871  Biso   1.000  N
  H151     1.0000 0.42490  0.44070  0.66908  Biso   1.000  H
  H152     1.0000 0.41210  0.44412  0.75341  Biso   1.000  H
  C157     1.0000 0.42152  0.63308  0.84667  Biso   1.000  C
  O51      1.0000 0.38607  0.78431  0.80059  Biso   1.000  O
  H153     1.0000 0.27881  0.74730  0.72980  Biso   1.000  H
  H154     1.0000 0.31209  0.81459  0.75652  Biso   1.000  H
  O52      1.0000 0.32599  0.93812  0.68143  Biso   1.000  O
  C158     1.0000 0.29738  0.98672  0.53670  Biso   1.000  C
  N106     1.0000 0.34863  0.90645  0.39393  Biso   1.000  N
  H155     1.0000 0.29100  0.85022  0.38310  Biso   1.000  H
  H156     1.0000 0.33131  0.79230  0.36879  Biso   1.000  H
  C159     1.0000 0.47489  0.52800  0.80548  Biso   1.000  C
  C160     1.0000 0.50002  0.49429  0.68932  Biso   1.000  C
  N107     1.0000 0.46448  0.61043  0.82703  Biso   1.000  N
  H157     1.0000 0.42300  0.68253  0.87660  Biso   1.000  H
  H158     1.0000 0.40910  0.59012  0.87741  Biso   1.000  H
  H159     1.0000 0.26971  0.99243  0.51042  Biso   1.000  H
  N108     1.0000 0.33263  0.00703  0.48702  Biso   1.000  N
  H160     1.0000 0.29729  0.02578  0.57729  Biso   1.000  H
  C161     1.0000 0.33244  0.98708  0.41101  Biso   1.000  C
  C162     1.0000 0.37972  0.90850  0.34322  Biso   1.000  C
  H161     1.0000 0.46270  0.48738  0.83993  Biso   1.000  H
  C163     1.0000 0.52511  0.52800  0.80548  Biso   1.000  C
  O53      1.0000 0.50002  0.46810  0.62707  Biso   1.000  O
  N109     1.0000 0.53601  0.50979  0.72871  Biso   1.000  N
  C164     1.0000 0.50002  0.65249  0.84548  Biso   1.000  C
  C165     1.0000 0.36589  0.05528  0.50612  Biso   1.000  C
  H162     1.0000 0.30371  0.99748  0.38800  Biso   1.000  H
  C166     1.0000 0.36801  0.04170  0.37929  Biso   1.000  C
  O54      1.0000 0.39459  0.85166  0.30861  Biso   1.000  O
  N110     1.0000 0.39214  0.98708  0.33386  Biso   1.000  N
  N111     1.0000 0.53552  0.61043  0.82703  Biso   1.000  N
  H163     1.0000 0.53730  0.48738  0.83993  Biso   1.000  H
  C167     1.0000 0.57777  0.47669  0.71168  Biso   1.000  C
  O55      1.0000 0.50002  0.72110  0.87459  Biso   1.000  O
  O56      1.0000 0.37304  0.08351  0.56690  Biso   1.000  O
  N112     1.0000 0.39046  0.06909  0.44469  Biso   1.000  N
  H164     1.0000 0.35569  0.08748  0.35078  Biso   1.000  H
  C168     1.0000 0.42074  0.01478  0.27602  Biso   1.000  C
  C169     1.0000 0.57848  0.63308  0.84667  Biso   1.000  C
  N113     1.0000 0.60935  0.53779  0.69607  Biso   1.000  N
  H165     1.0000 0.57510  0.44070  0.66908  Biso   1.000  H
  H166     1.0000 0.58790  0.44412  0.75341  Biso   1.000  H
  C170     1.0000 0.42271  0.13140  0.44409  Biso   1.000  C
  H167     1.0000 0.42239  0.97278  0.23788  Biso   1.000  H
  N114     1.0000 0.46425  0.03311  0.30100  Biso   1.000  N
  H168     1.0000 0.40820  0.06363  0.25360  Biso   1.000  H
  N115     1.0000 0.60712  0.64738  0.78650  Biso   1.000  N
  H169     1.0000 0.57700  0.68253  0.87660  Biso   1.000  H
  H170     1.0000 0.59090  0.59012  0.87741  Biso   1.000  H
  C171     1.0000 0.63179  0.58159  0.75380  Biso   1.000  C
  C172     1.0000 0.62696  0.55041  0.62969  Biso   1.000  C
  N116     1.0000 0.46406  0.10382  0.41640  Biso   1.000  N
  H171     1.0000 0.42671  0.15189  0.49421  Biso   1.000  H
  H172     1.0000 0.41239  0.17652  0.41362  Biso   1.000  H
  C173     1.0000 0.50002  0.99033  0.27662  Biso   1.000  C
  C174     1.0000 0.47493  0.10508  0.33979  Biso   1.000  C
  C175     1.0000 0.62557  0.72122  0.77268  Biso   1.000  C
  H173     1.0000 0.64421  0.54458  0.79139  Biso   1.000  H
  C176     1.0000 0.66762  0.62749  0.71081  Biso   1.000  C
  O57      1.0000 0.61599  0.51736  0.57294  Biso   1.000  O
  N117     1.0000 0.66008  0.60250  0.63583  Biso   1.000  N
  C177     1.0000 0.50002  0.10899  0.46150  Biso   1.000  C
  O58      1.0000 0.50002  0.92988  0.24169  Biso   1.000  O
  N118     1.0000 0.53575  0.03311  0.30100  Biso   1.000  N
  H174     1.0000 0.46309  0.15381  0.31509  Biso   1.000  H
  C178     1.0000 0.52507  0.10508  0.33979  Biso   1.000  C
  O59      1.0000 0.61393  0.78431  0.80059  Biso   1.000  O
  N119     1.0000 0.65895  0.71155  0.72479  Biso   1.000  N
  H175     1.0000 0.69710  0.61181  0.72762  Biso   1.000  H
  C179     1.0000 0.69030  0.62311  0.57740  Biso   1.000  C
  O60      1.0000 0.50002  0.11710  0.52609  Biso   1.000  O
  N120     1.0000 0.53594  0.10382  0.41640  Biso   1.000  N
  C180     1.0000 0.57926  0.01478  0.27602  Biso   1.000  C
  H176     1.0000 0.53691  0.15381  0.31509  Biso   1.000  H
  C181     1.0000 0.69300  0.77259  0.71919  Biso   1.000  C
  N121     1.0000 0.68707  0.70746  0.55558  Biso   1.000  N
  H177     1.0000 0.68449  0.58850  0.53469  Biso   1.000  H
  H178     1.0000 0.72010  0.61211  0.59399  Biso   1.000  H
  C182     1.0000 0.57729  0.13140  0.44409  Biso   1.000  C
  N122     1.0000 0.60786  0.98708  0.33386  Biso   1.000  N
  H179     1.0000 0.57761  0.97278  0.23788  Biso   1.000  H
  H180     1.0000 0.59180  0.06363  0.25360  Biso   1.000  H
  N123     1.0000 0.69481  0.80978  0.64862  Biso   1.000  N
  H181     1.0000 0.72119  0.74730  0.72980  Biso   1.000  H
  H182     1.0000 0.68791  0.81459  0.75652  Biso   1.000  H
  C183     1.0000 0.71342  0.76911  0.58551  Biso   1.000  C
  C184     1.0000 0.67075  0.72771  0.48822  Biso   1.000  C
  N124     1.0000 0.60954  0.06909  0.44469  Biso   1.000  N
  H183     1.0000 0.57329  0.15189  0.49421  Biso   1.000  H
  H184     1.0000 0.58761  0.17652  0.41362  Biso   1.000  H
  C185     1.0000 0.62028  0.90850  0.34322  Biso   1.000  C
  C186     1.0000 0.63199  0.04170  0.37929  Biso   1.000  C
  C187     1.0000 0.68778  0.88891  0.63790  Biso   1.000  C
  H185     1.0000 0.74332  0.74958  0.59563  Biso   1.000  H
  C188     1.0000 0.71303  0.83562  0.52691  Biso   1.000  C
  O61      1.0000 0.65047  0.68517  0.44910  Biso   1.000  O
  N125     1.0000 0.68259  0.80708  0.47358  Biso   1.000  N
  C189     1.0000 0.63411  0.05528  0.50612  Biso   1.000  C
  N126     1.0000 0.65137  0.90645  0.39393  Biso   1.000  N
  O62      1.0000 0.60541  0.85166  0.30861  Biso   1.000  O
  C190     1.0000 0.66756  0.98708  0.41101  Biso   1.000  C
  H186     1.0000 0.64431  0.08748  0.35078  Biso   1.000  H
  O63      1.0000 0.67401  0.93812  0.68143  Biso   1.000  O
  N127     1.0000 0.69994  0.90645  0.56641  Biso   1.000  N
  H187     1.0000 0.74228  0.84283  0.50498  Biso   1.000  H
  C191     1.0000 0.67981  0.83580  0.40040  Biso   1.000  C
  N128     1.0000 0.66737  0.00703  0.48702  Biso   1.000  N
  O64      1.0000 0.62696  0.08351  0.56690  Biso   1.000  O
  H188     1.0000 0.69629  0.99748  0.38800  Biso   1.000  H
  C192     1.0000 0.70262  0.98672  0.53670  Biso   1.000  C
  H189     1.0000 0.70900  0.85022  0.38310  Biso   1.000  H
  H190     1.0000 0.66869  0.79230  0.36879  Biso   1.000  H
  H191     1.0000 0.73029  0.99243  0.51042  Biso   1.000  H
  H192     1.0000 0.70271  0.02578  0.57729  Biso   1.000  H
  Ne1      1.0000 0.50000  0.19041  0.06404  Biso   1.000  Ne
  He1      1.0000 0.50000  0.09072  0.18947  Biso   1.000  He
  He2      1.0000 0.50000  0.32923  0.95123  Biso   1.000  He
  Ar1      1.0000 0.50000  0.20174  0.06791  Biso   1.000  Ar
  Ne2      1.0000 0.00000  0.30959  0.56404  Biso   1.000  Ne
  He3      1.0000 0.00000  0.42976  0.70983  Biso   1.000  He
  He4      1.0000 0.00000  0.20410  0.43314  Biso   1.000  He
  Ar2      1.0000 0.00000  0.29255  0.55529  Biso   1.000  Ar
  Ne3      1.0000 0.00000  0.69041  0.06404  Biso   1.000  Ne
  He5      1.0000 1.00000  0.59074  0.18947  Biso   1.000  He
  He6      1.0000 0.00000  0.79957  0.92961  Biso   1.000  He
  Ar3      1.0000 0.00000  0.70745  0.05527  Biso   1.000  Ar
  Ne4      1.0000 0.50000  0.80959  0.56404  Biso   1.000  Ne
  He7      1.0000 0.50000  0.92977  0.70982  Biso   1.000  He
  He8      1.0000 0.50000  0.70410  0.43314  Biso   1.000  He
  Ar4      1.0000 0.50000  0.79825  0.56792  Biso   1.000  Ar
