data_image0
_cell_length_a       15.299
_cell_length_b       15.47
_cell_length_c       15.59
_cell_angle_alpha    104.55
_cell_angle_beta     101.03
_cell_angle_gamma    104.07

_symmetry_space_group_name_H-M    "P 1"
_symmetry_int_tables_number       1

loop_
  _symmetry_equiv_pos_as_xyz
  'x, y, z'

loop_
  _atom_site_label
  _atom_site_occupancy
  _atom_site_fract_x
  _atom_site_fract_y
  _atom_site_fract_z
  _atom_site_thermal_displace_type
  _atom_site_B_iso_or_equiv
  _atom_site_type_symbol
  C1       1.0000 0.41130  0.45538  0.12838  Biso   1.000  C
  O1       1.0000 0.40684  0.41072  0.19732  Biso   1.000  O
  C2       1.0000 0.32674  0.49004  0.11022  Biso   1.000  C
  H1       1.0000 0.46826  0.50945  0.15019  Biso   1.000  H
  C3       1.0000 0.41372  0.38933  0.03997  Biso   1.000  C
  H2       1.0000 0.40564  0.44785  0.24459  Biso   1.000  H
  C4       1.0000 0.33195  0.53658  0.03571  Biso   1.000  C
  H3       1.0000 0.27063  0.43513  0.08683  Biso   1.000  H
  O2       1.0000 0.31874  0.55031  0.19099  Biso   1.000  O
  H4       1.0000 0.35978  0.33248  0.02009  Biso   1.000  H
  O3       1.0000 0.49941  0.36538  0.05910  Biso   1.000  O
  C5       1.0000 0.41466  0.43468  0.96381  Biso   1.000  C
  O4       1.0000 0.41212  0.61764  0.06880  Biso   1.000  O
  H5       1.0000 0.27594  0.55629  0.02229  Biso   1.000  H
  O5       1.0000 0.33518  0.47339  0.95459  Biso   1.000  O
  H6       1.0000 0.34645  0.60472  0.19650  Biso   1.000  H
  C6       1.0000 0.49323  0.26862  0.03612  Biso   1.000  C
  H7       1.0000 0.47357  0.48511  0.97943  Biso   1.000  H
  C7       1.0000 0.40082  0.36583  0.87306  Biso   1.000  C
  C8       1.0000 0.39833  0.70659  0.07231  Biso   1.000  C
  H8       1.0000 0.42741  0.23033  0.01803  Biso   1.000  H
  C9       1.0000 0.54521  0.25244  0.12061  Biso   1.000  C
  O6       1.0000 0.53427  0.24428  0.96250  Biso   1.000  O
  H9       1.0000 0.44467  0.33024  0.87829  Biso   1.000  H
  H10      1.0000 0.33796  0.32248  0.85270  Biso   1.000  H
  O7       1.0000 0.41544  0.41476  0.80687  Biso   1.000  O
  C10      1.0000 0.44669  0.77565  0.16891  Biso   1.000  C
  H11      1.0000 0.33123  0.69941  0.05772  Biso   1.000  H
  C11      1.0000 0.43947  0.74132  0.00213  Biso   1.000  C
  H12      1.0000 0.54131  0.18590  0.10671  Biso   1.000  H
  O8       1.0000 0.50452  0.27779  0.19340  Biso   1.000  O
  C12      1.0000 0.64780  0.31189  0.14841  Biso   1.000  C
  C13      1.0000 0.63314  0.29875  0.98287  Biso   1.000  C
  H13      1.0000 0.42923  0.38198  0.76470  Biso   1.000  H
  C14      1.0000 0.43755  0.87132  0.16801  Biso   1.000  C
  H14      1.0000 0.51307  0.77985  0.18459  Biso   1.000  H
  O9       1.0000 0.40455  0.74245  0.23200  Biso   1.000  O
  H15      1.0000 0.50496  0.74203  0.01397  Biso   1.000  H
  O10      1.0000 0.43698  0.83642  0.00860  Biso   1.000  O
  C15      1.0000 0.39015  0.68298  0.90423  Biso   1.000  C
  H16      1.0000 0.47773  0.23050  0.20413  Biso   1.000  H
  H17      1.0000 0.65333  0.37881  0.16581  Biso   1.000  H
  O11      1.0000 0.70127  0.29114  0.22189  Biso   1.000  O
  C16      1.0000 0.68882  0.28564  0.06839  Biso   1.000  C
  H18      1.0000 0.63875  0.36535  0.99401  Biso   1.000  H
  C17      1.0000 0.66226  0.26257  0.89721  Biso   1.000  C
  C18      1.0000 0.48037  0.90192  0.09763  Biso   1.000  C
  H19      1.0000 0.37104  0.86681  0.15240  Biso   1.000  H
  O12      1.0000 0.48310  0.93932  0.25691  Biso   1.000  O
  H20      1.0000 0.43036  0.77872  0.28408  Biso   1.000  H
  H21      1.0000 0.42026  0.70904  0.86288  Biso   1.000  H
  H22      1.0000 0.39319  0.61944  0.89432  Biso   1.000  H
  O13      1.0000 0.29338  0.68236  0.88538  Biso   1.000  O
  H23      1.0000 0.68157  0.30422  0.26729  Biso   1.000  H
  H24      1.0000 0.69052  0.22082  0.05594  Biso   1.000  H
  O14      1.0000 0.78211  0.35001  0.09261  Biso   1.000  O
  H25      1.0000 0.62012  0.26696  0.84451  Biso   1.000  H
  H26      1.0000 0.72496  0.30065  0.90292  Biso   1.000  H
  O15      1.0000 0.66007  0.16704  0.88373  Biso   1.000  O
  H27      1.0000 0.47344  0.96323  0.09742  Biso   1.000  H
  O16      1.0000 0.57818  0.91014  0.12192  Biso   1.000  O
  H28      1.0000 0.44426  0.94565  0.28573  Biso   1.000  H
  H29      1.0000 0.25948  0.62985  0.85318  Biso   1.000  H
  C19      1.0000 0.85442  0.31130  0.07843  Biso   1.000  C
  H30      1.0000 0.63173  0.14605  0.91737  Biso   1.000  H
  C20      1.0000 0.64397  0.99850  0.13843  Biso   1.000  C
  H31      1.0000 0.83044  0.24282  0.06158  Biso   1.000  H
  C21      1.0000 0.93103  0.34944  0.16918  Biso   1.000  C
  O17      1.0000 0.88942  0.33613  0.00709  Biso   1.000  O
  C22      1.0000 0.69318  0.99133  0.06392  Biso   1.000  C
  C23      1.0000 0.71260  0.02603  0.23310  Biso   1.000  C
  H32      1.0000 0.61111  0.04553  0.13753  Biso   1.000  H
  H33      1.0000 0.98050  0.32070  0.16079  Biso   1.000  H
  O18      1.0000 0.89723  0.32521  0.23991  Biso   1.000  O
  C24      1.0000 0.97292  0.45450  0.19189  Biso   1.000  C
  C25      1.0000 0.92601  0.43684  0.02553  Biso   1.000  C
  H34      1.0000 0.71917  0.93901  0.06137  Biso   1.000  H
  C26      1.0000 0.63079  0.97327  0.96986  Biso   1.000  C
  O19      1.0000 0.76982  0.07543  0.08311  Biso   1.000  O
  H35      1.0000 0.74016  0.97561  0.23654  Biso   1.000  H
  C27      1.0000 0.78939  0.11501  0.24590  Biso   1.000  C
  O20      1.0000 0.66740  0.04384  0.30569  Biso   1.000  O
  H36      1.0000 0.84067  0.31675  0.22801  Biso   1.000  H
  H37      1.0000 0.92547  0.48513  0.20393  Biso   1.000  H
  O21      1.0000 0.04773  0.48432  0.27349  Biso   1.000  O
  C28      1.0000 0.00608  0.47715  0.11180  Biso   1.000  C
  H38      1.0000 0.87632  0.46443  0.03660  Biso   1.000  H
  C29      1.0000 0.94927  0.45268  0.93980  Biso   1.000  C
  H39      1.0000 0.66864  0.97611  0.92673  Biso   1.000  H
  H40      1.0000 0.58691  0.91046  0.94971  Biso   1.000  H
  O22      1.0000 0.57944  0.04029  0.96897  Biso   1.000  O
  C30      1.0000 0.83483  0.09884  0.16781  Biso   1.000  C
  H41      1.0000 0.76113  0.16513  0.24363  Biso   1.000  H
  O23      1.0000 0.85654  0.14315  0.33121  Biso   1.000  O
  H42      1.0000 0.61275  0.01075  0.28738  Biso   1.000  H
  H43      1.0000 0.08426  0.53467  0.27734  Biso   1.000  H
  H44      1.0000 0.05712  0.45099  0.10251  Biso   1.000  H
  O24      1.0000 0.03864  0.57780  0.13382  Biso   1.000  O
  H45      1.0000 0.89474  0.42095  0.88751  Biso   1.000  H
  H46      1.0000 0.96687  0.51918  0.94689  Biso   1.000  H
  O25      1.0000 0.02559  0.41658  0.92418  Biso   1.000  O
  H47      1.0000 0.60244  0.07766  0.94427  Biso   1.000  H
  O26      1.0000 0.87659  0.02702  0.17249  Biso   1.000  O
  H48      1.0000 0.88402  0.15674  0.17613  Biso   1.000  H
  H49      1.0000 0.83795  0.11086  0.36245  Biso   1.000  H
  C31      1.0000 0.13269  0.61893  0.13554  Biso   1.000  C
  H50      1.0000 0.03797  0.42479  0.87740  Biso   1.000  H
  C32      1.0000 0.97464  0.04663  0.17964  Biso   1.000  C
  H51      1.0000 0.16435  0.57069  0.12742  Biso   1.000  H
  C33      1.0000 0.18055  0.69291  0.22773  Biso   1.000  C
  O27      1.0000 0.13684  0.66091  0.06467  Biso   1.000  O
  C34      1.0000 0.98617  0.98500  0.09254  Biso   1.000  C
  C35      1.0000 0.01989  0.02603  0.26468  Biso   1.000  C
  H52      1.0000 0.00203  0.11280  0.18570  Biso   1.000  H
  H53      1.0000 0.24584  0.72129  0.22980  Biso   1.000  H
  O28      1.0000 0.17848  0.64967  0.29984  Biso   1.000  O
  C36      1.0000 0.13391  0.76785  0.24101  Biso   1.000  C
  C37      1.0000 0.09607  0.73594  0.07073  Biso   1.000  C
  H54      1.0000 0.94435  0.92039  0.07279  Biso   1.000  H
  C38      1.0000 0.92419  0.97705  0.99718  Biso   1.000  C
  C39      1.0000 0.97321  0.03500  0.01631  Biso   1.000  C
  O29      1.0000 0.08350  0.99023  0.10100  Biso   1.000  O
  H55      1.0000 0.98762  0.96233  0.26262  Biso   1.000  H
  C40      1.0000 0.12004  0.03571  0.26599  Biso   1.000  C
  O30      1.0000 0.01873  0.09317  0.34710  Biso   1.000  O
  H56      1.0000 0.15935  0.67934  0.33961  Biso   1.000  H
  H57      1.0000 0.06849  0.73996  0.23902  Biso   1.000  H
  O31      1.0000 0.18079  0.83863  0.32922  Biso   1.000  O
  C41      1.0000 0.13737  0.81092  0.16457  Biso   1.000  C
  C42      1.0000 0.11407  0.77334  0.99388  Biso   1.000  C
  H58      1.0000 0.02832  0.71028  0.06068  Biso   1.000  H
  H59      1.0000 0.98421  0.99798  0.96147  Biso   1.000  H
  H60      1.0000 0.93988  0.93760  0.94702  Biso   1.000  H
  H61      1.0000 0.85823  0.95181  0.99243  Biso   1.000  H
  O32      1.0000 0.94822  0.07176  0.99869  Biso   1.000  O
  H62      1.0000 0.90850  0.03461  0.00069  Biso   1.000  H
  O33      1.0000 0.03119  0.12853  0.03922  Biso   1.000  O
  C43      1.0000 0.12668  0.96905  0.17792  Biso   1.000  C
  H63      1.0000 0.15154  0.10032  0.26963  Biso   1.000  H
  O34      1.0000 0.16603  0.01656  0.34532  Biso   1.000  O
  H64      1.0000 0.96911  0.10522  0.33892  Biso   1.000  H
  H65      1.0000 0.15487  0.87954  0.33610  Biso   1.000  H
  H66      1.0000 0.20234  0.84484  0.17042  Biso   1.000  H
  O35      1.0000 0.08296  0.87542  0.17228  Biso   1.000  O
  H67      1.0000 0.08316  0.72406  0.93567  Biso   1.000  H
  H68      1.0000 0.08722  0.82410  0.99463  Biso   1.000  H
  O36      1.0000 0.21143  0.80690  0.00069  Biso   1.000  O
  H69      1.0000 0.91150  0.09640  0.01933  Biso   1.000  H
  H70      1.0000 0.07408  0.12912  0.01472  Biso   1.000  H
  O37      1.0000 0.10009  0.21752  0.10238  Biso   1.000  O
  H71      1.0000 0.19265  0.97730  0.17999  Biso   1.000  H
  H72      1.0000 0.22080  0.02192  0.34559  Biso   1.000  H
  H73      1.0000 0.22835  0.86440  0.01631  Biso   1.000  H
  C44      1.0000 0.48479  0.80874  0.48354  Biso   1.000  C
  C45      1.0000 0.39222  0.73876  0.46909  Biso   1.000  C
  H74      1.0000 0.53292  0.77705  0.48134  Biso   1.000  H
  O38      1.0000 0.47827  0.85185  0.41350  Biso   1.000  O
  C46      1.0000 0.50819  0.88043  0.57752  Biso   1.000  C
  C47      1.0000 0.39532  0.69177  0.54326  Biso   1.000  C
  H75      1.0000 0.34622  0.77295  0.47370  Biso   1.000  H
  O39      1.0000 0.36166  0.67076  0.37999  Biso   1.000  O
  H76      1.0000 0.51142  0.90674  0.43455  Biso   1.000  H
  C48      1.0000 0.50569  0.83306  0.65362  Biso   1.000  C
  H77      1.0000 0.46385  0.91666  0.57766  Biso   1.000  H
  O40      1.0000 0.60210  0.94278  0.59940  Biso   1.000  O
  O41      1.0000 0.46449  0.64594  0.53975  Biso   1.000  O
  H78      1.0000 0.33429  0.64544  0.53170  Biso   1.000  H
  O42      1.0000 0.41672  0.76095  0.63084  Biso   1.000  O
  H79      1.0000 0.31089  0.63358  0.37435  Biso   1.000  H
  H80      1.0000 0.55621  0.80440  0.65884  Biso   1.000  H
  C49      1.0000 0.51401  0.89857  0.74643  Biso   1.000  C
  C50      1.0000 0.61405  0.04146  0.62713  Biso   1.000  C
  C51      1.0000 0.44001  0.54986  0.53603  Biso   1.000  C
  H81      1.0000 0.51284  0.86397  0.79046  Biso   1.000  H
  H82      1.0000 0.57374  0.94747  0.76686  Biso   1.000  H
  O43      1.0000 0.44033  0.94092  0.74526  Biso   1.000  O
  H83      1.0000 0.55428  0.05206  0.63174  Biso   1.000  H
  C52      1.0000 0.64794  0.08137  0.55482  Biso   1.000  C
  O44      1.0000 0.68120  0.08521  0.71354  Biso   1.000  O
  C53      1.0000 0.45749  0.49586  0.44969  Biso   1.000  C
  C54      1.0000 0.50243  0.54316  0.62224  Biso   1.000  C
  H84      1.0000 0.37390  0.52698  0.53452  Biso   1.000  H
  H85      1.0000 0.46233  0.99761  0.75544  Biso   1.000  H
  H86      1.0000 0.65110  0.14768  0.57092  Biso   1.000  H
  O45      1.0000 0.58254  0.03274  0.46709  Biso   1.000  O
  C55      1.0000 0.74456  0.07418  0.55255  Biso   1.000  C
  C56      1.0000 0.77581  0.08160  0.71623  Biso   1.000  C
  C57      1.0000 0.44297  0.39556  0.44735  Biso   1.000  C
  H87      1.0000 0.52206  0.52374  0.44934  Biso   1.000  H
  O46      1.0000 0.39386  0.50164  0.37084  Biso   1.000  O
  O47      1.0000 0.48812  0.44326  0.61344  Biso   1.000  O
  H88      1.0000 0.56819  0.57474  0.62871  Biso   1.000  H
  C58      1.0000 0.47461  0.58486  0.70955  Biso   1.000  C
  H89      1.0000 0.56373  0.07036  0.44590  Biso   1.000  H
  H90      1.0000 0.74193  0.00806  0.53493  Biso   1.000  H
  O48      1.0000 0.77845  0.11577  0.48925  Biso   1.000  O
  C59      1.0000 0.80973  0.12443  0.64680  Biso   1.000  C
  H91      1.0000 0.77505  0.01595  0.69992  Biso   1.000  H
  C60      1.0000 0.83499  0.13235  0.81330  Biso   1.000  C
  O49      1.0000 0.46499  0.34316  0.36891  Biso   1.000  O
  C61      1.0000 0.50807  0.39417  0.53390  Biso   1.000  C
  H92      1.0000 0.37785  0.36655  0.44563  Biso   1.000  H
  H93      1.0000 0.40288  0.55681  0.37332  Biso   1.000  H
  H94      1.0000 0.47124  0.64725  0.71251  Biso   1.000  H
  H95      1.0000 0.41329  0.54624  0.70694  Biso   1.000  H
  O50      1.0000 0.54164  0.58981  0.79067  Biso   1.000  O
  H96      1.0000 0.74172  0.09028  0.43792  Biso   1.000  H
  H97      1.0000 0.81481  0.19127  0.66435  Biso   1.000  H
  O51      1.0000 0.89910  0.11254  0.64275  Biso   1.000  O
  H98      1.0000 0.89952  0.13518  0.81551  Biso   1.000  H
  O52      1.0000 0.84270  0.22717  0.82583  Biso   1.000  O
  H99      1.0000 0.83253  0.19630  0.83037  Biso   1.000  H
  H100     1.0000 0.80532  0.11032  0.85686  Biso   1.000  H
  H101     1.0000 0.89619  0.12307  0.82142  Biso   1.000  H
  O53      1.0000 0.80739  0.09006  0.87963  Biso   1.000  O
  H102     1.0000 0.45661  0.28880  0.36898  Biso   1.000  H
  H103     1.0000 0.49816  0.32876  0.53273  Biso   1.000  H
  O54      1.0000 0.60149  0.43238  0.53273  Biso   1.000  O
  H104     1.0000 0.52103  0.54555  0.80883  Biso   1.000  H
  C62      1.0000 0.97950  0.19326  0.68313  Biso   1.000  C
  H105     1.0000 0.85702  0.25581  0.88094  Biso   1.000  H
  H106     1.0000 0.85363  0.08581  0.91293  Biso   1.000  H
  C63      1.0000 0.66650  0.37849  0.54326  Biso   1.000  C
  H107     1.0000 0.95980  0.24960  0.69951  Biso   1.000  H
  C64      1.0000 0.03314  0.19868  0.61151  Biso   1.000  C
  O55      1.0000 0.03554  0.18615  0.76301  Biso   1.000  O
  C65      1.0000 0.70947  0.37064  0.46242  Biso   1.000  C
  H108     1.0000 0.63256  0.31561  0.54229  Biso   1.000  H
  C66      1.0000 0.74018  0.42915  0.63566  Biso   1.000  C
  O56      1.0000 0.97475  0.20508  0.53191  Biso   1.000  O
  H109     1.0000 0.08748  0.25527  0.63683  Biso   1.000  H
  C67      1.0000 0.06770  0.11318  0.58915  Biso   1.000  C
  C68      1.0000 0.06559  0.10258  0.74691  Biso   1.000  C
  C69      1.0000 0.78205  0.32107  0.47645  Biso   1.000  C
  H110     1.0000 0.73867  0.43323  0.45953  Biso   1.000  H
  O57      1.0000 0.63934  0.31673  0.37923  Biso   1.000  O
  H111     1.0000 0.77008  0.49378  0.63814  Biso   1.000  H
  O58      1.0000 0.81028  0.38077  0.64254  Biso   1.000  O
  C70      1.0000 0.70284  0.43076  0.71636  Biso   1.000  C
  H112     1.0000 0.00674  0.23727  0.50789  Biso   1.000  H
  H113     1.0000 0.01269  0.05758  0.56046  Biso   1.000  H
  O59      1.0000 0.12405  0.11614  0.52509  Biso   1.000  O
  C71      1.0000 0.12129  0.10197  0.67563  Biso   1.000  C
  H114     1.0000 0.00991  0.04736  0.72235  Biso   1.000  H
  C72      1.0000 0.11679  0.10385  0.83993  Biso   1.000  C
  C73      1.0000 0.85370  0.37456  0.57064  Biso   1.000  C
  H115     1.0000 0.75067  0.25792  0.47693  Biso   1.000  H
  O60      1.0000 0.82824  0.31225  0.40531  Biso   1.000  O
  H116     1.0000 0.59966  0.34332  0.37112  Biso   1.000  H
  H117     1.0000 0.75385  0.46229  0.77195  Biso   1.000  H
  H118     1.0000 0.65902  0.46677  0.71643  Biso   1.000  H
  O61      1.0000 0.65701  0.33964  0.71753  Biso   1.000  O
  H119     1.0000 0.17354  0.15854  0.54979  Biso   1.000  H
  O62      1.0000 0.13714  0.01199  0.65114  Biso   1.000  O
  H120     1.0000 0.18126  0.15205  0.70185  Biso   1.000  H
  H121     1.0000 0.07390  0.10050  0.87832  Biso   1.000  H
  H122     1.0000 0.13770  0.04881  0.83284  Biso   1.000  H
  O63      1.0000 0.19503  0.18491  0.88493  Biso   1.000  O
  O64      1.0000 0.90039  0.46355  0.56651  Biso   1.000  O
  H123     1.0000 0.89946  0.34083  0.58000  Biso   1.000  H
  H124     1.0000 0.83257  0.25913  0.38921  Biso   1.000  H
  H125     1.0000 0.60062  0.33179  0.70776  Biso   1.000  H
  C74      1.0000 0.22987  0.00804  0.67343  Biso   1.000  C
  H126     1.0000 0.17922  0.22523  0.91795  Biso   1.000  H
  C75      1.0000 0.99918  0.49176  0.58770  Biso   1.000  C
  C76      1.0000 0.24313  0.94606  0.58626  Biso   1.000  C
  O65      1.0000 0.24524  0.96910  0.74670  Biso   1.000  O
  H127     1.0000 0.27400  0.07126  0.69132  Biso   1.000  H
  C77      1.0000 0.02972  0.52616  0.51292  Biso   1.000  C
  H128     1.0000 0.02099  0.43784  0.59121  Biso   1.000  H
  C78      1.0000 0.04053  0.57044  0.68251  Biso   1.000  C
  C79      1.0000 0.17483  0.84673  0.55963  Biso   1.000  C
  H129     1.0000 0.30688  0.94194  0.60029  Biso   1.000  H
  O66      1.0000 0.23230  0.98557  0.51374  Biso   1.000  O
  C80      1.0000 0.18463  0.87579  0.72682  Biso   1.000  C
  O67      1.0000 0.99671  0.44918  0.42994  Biso   1.000  O
  C81      1.0000 0.13572  0.56777  0.53913  Biso   1.000  C
  H130     1.0000 0.00128  0.57484  0.50445  Biso   1.000  H
  H131     1.0000 0.01058  0.61954  0.68121  Biso   1.000  H
  O68      1.0000 0.13902  0.61125  0.69971  Biso   1.000  O
  C82      1.0000 0.02392  0.53537  0.76122  Biso   1.000  C
  C83      1.0000 0.19490  0.81056  0.64013  Biso   1.000  C
  H132     1.0000 0.10995  0.84788  0.54525  Biso   1.000  H
  O69      1.0000 0.19190  0.78613  0.48223  Biso   1.000  O
  H133     1.0000 0.20125  0.02179  0.52303  Biso   1.000  H
  H134     1.0000 0.11966  0.87656  0.71712  Biso   1.000  H
  C84      1.0000 0.21168  0.84592  0.81035  Biso   1.000  C
  H135     1.0000 0.02277  0.40962  0.43545  Biso   1.000  H
  C85      1.0000 0.16790  0.64619  0.63146  Biso   1.000  C
  H136     1.0000 0.16317  0.51827  0.54690  Biso   1.000  H
  O70      1.0000 0.16613  0.60019  0.46985  Biso   1.000  O
  H137     1.0000 0.95793  0.52187  0.75861  Biso   1.000  H
  H138     1.0000 0.05854  0.58481  0.81846  Biso   1.000  H
  O71      1.0000 0.05010  0.45475  0.76212  Biso   1.000  O
  O72      1.0000 0.13042  0.71906  0.61922  Biso   1.000  O
  H139     1.0000 0.25882  0.80656  0.65121  Biso   1.000  H
  H140     1.0000 0.18122  0.80463  0.43765  Biso   1.000  H
  H141     1.0000 0.20653  0.88995  0.86422  Biso   1.000  H
  H142     1.0000 0.16995  0.78435  0.80202  Biso   1.000  H
  O73      1.0000 0.30593  0.84300  0.82273  Biso   1.000  O
  H143     1.0000 0.23643  0.67078  0.64921  Biso   1.000  H
  H144     1.0000 0.17118  0.65617  0.48113  Biso   1.000  H
  H145     1.0000 0.10633  0.46615  0.76693  Biso   1.000  H
  H146     1.0000 0.33282  0.87514  0.79542  Biso   1.000  H
  Ne1      1.0000 0.82235  0.76887  0.60994  Biso   1.000  Ne
  He1      1.0000 0.83246  0.77321  0.68801  Biso   1.000  He
  He2      1.0000 0.80725  0.73892  0.49098  Biso   1.000  He
  Ar1      1.0000 0.81661  0.75070  0.55475  Biso   1.000  Ar
  Ne2      1.0000 0.76298  0.69262  0.10525  Biso   1.000  Ne
  He3      1.0000 0.75870  0.68800  0.14882  Biso   1.000  He
  He4      1.0000 0.74564  0.66606  0.02518  Biso   1.000  He
  Ar2      1.0000 0.76328  0.69298  0.13763  Biso   1.000  Ar
