data_image0
_cell_length_a       18.845
_cell_length_b       13.192
_cell_length_c       19.392
_cell_angle_alpha    90
_cell_angle_beta     117.47
_cell_angle_gamma    90

_symmetry_space_group_name_H-M    "P 1"
_symmetry_int_tables_number       1

loop_
  _symmetry_equiv_pos_as_xyz
  'x, y, z'

loop_
  _atom_site_label
  _atom_site_occupancy
  _atom_site_fract_x
  _atom_site_fract_y
  _atom_site_fract_z
  _atom_site_thermal_displace_type
  _atom_site_B_iso_or_equiv
  _atom_site_type_symbol
  C1       1.0000 0.58543  0.38463  0.41736  Biso   1.000  C
  C2       1.0000 0.64868  0.42435  0.40841  Biso   1.000  C
  C3       1.0000 0.50865  0.38971  0.35488  Biso   1.000  C
  H1       1.0000 0.59412  0.35453  0.46508  Biso   1.000  H
  O1       1.0000 0.72706  0.42367  0.47171  Biso   1.000  O
  C4       1.0000 0.63931  0.46960  0.34105  Biso   1.000  C
  C5       1.0000 0.49590  0.43610  0.28409  Biso   1.000  C
  H2       1.0000 0.46472  0.36189  0.35982  Biso   1.000  H
  C6       1.0000 0.76156  0.33346  0.50100  Biso   1.000  C
  C7       1.0000 0.56102  0.47589  0.27863  Biso   1.000  C
  H3       1.0000 0.68391  0.49583  0.33652  Biso   1.000  H
  C8       1.0000 0.41366  0.44034  0.21871  Biso   1.000  C
  N1       1.0000 0.72420  0.25000  0.46276  Biso   1.000  N
  N2       1.0000 0.83059  0.34089  0.56516  Biso   1.000  N
  H4       1.0000 0.55300  0.50826  0.23178  Biso   1.000  H
  C9       1.0000 0.34685  0.44193  0.23335  Biso   1.000  C
  C10      1.0000 0.40024  0.43981  0.14158  Biso   1.000  C
  C11      1.0000 0.76156  0.16654  0.50100  Biso   1.000  C
  C12      1.0000 0.86482  0.25000  0.59289  Biso   1.000  C
  C13      1.0000 0.26913  0.43981  0.17326  Biso   1.000  C
  H5       1.0000 0.35531  0.44459  0.28549  Biso   1.000  H
  C14      1.0000 0.32254  0.43943  0.07974  Biso   1.000  C
  H6       1.0000 0.44462  0.43974  0.13089  Biso   1.000  H
  O2       1.0000 0.72706  0.07633  0.47171  Biso   1.000  O
  N3       1.0000 0.83059  0.15911  0.56516  Biso   1.000  N
  N4       1.0000 0.93755  0.25000  0.65577  Biso   1.000  N
  C15      1.0000 0.19912  0.43913  0.18976  Biso   1.000  C
  C16      1.0000 0.25794  0.43830  0.09625  Biso   1.000  C
  C17      1.0000 0.30767  0.43648  0.99744  Biso   1.000  C
  C18      1.0000 0.64868  0.07565  0.40841  Biso   1.000  C
  C19      1.0000 0.98007  0.15274  0.68757  Biso   1.000  C
  C20      1.0000 0.98007  0.34726  0.68757  Biso   1.000  C
  C21      1.0000 0.20684  0.39289  0.25811  Biso   1.000  C
  C22      1.0000 0.12707  0.47938  0.13937  Biso   1.000  C
  H7       1.0000 0.20510  0.43640  0.05458  Biso   1.000  H
  C23      1.0000 0.36188  0.39456  0.97547  Biso   1.000  C
  C24      1.0000 0.23743  0.47703  0.93810  Biso   1.000  C
  C25      1.0000 0.58543  0.11537  0.41736  Biso   1.000  C
  C26      1.0000 0.63931  0.03040  0.34105  Biso   1.000  C
  H8       1.0000 0.94041  0.10089  0.68361  Biso   1.000  H
  C27      1.0000 0.02643  0.11363  0.64706  Biso   1.000  C
  H9       1.0000 0.01751  0.16222  0.74342  Biso   1.000  H
  H10      1.0000 0.94041  0.39911  0.68361  Biso   1.000  H
  C28      1.0000 0.02643  0.38637  0.64706  Biso   1.000  C
  H11      1.0000 0.01751  0.33778  0.74342  Biso   1.000  H
  C29      1.0000 0.14199  0.38781  0.27375  Biso   1.000  C
  H12      1.0000 0.25684  0.36492  0.29392  Biso   1.000  H
  C30      1.0000 0.05997  0.47263  0.15373  Biso   1.000  C
  H13      1.0000 0.12168  0.51258  0.09369  Biso   1.000  H
  C31      1.0000 0.34507  0.38857  0.89759  Biso   1.000  C
  H14      1.0000 0.41151  0.36939  0.01441  Biso   1.000  H
  C32      1.0000 0.22007  0.47173  0.86051  Biso   1.000  C
  H15      1.0000 0.20028  0.50932  0.95141  Biso   1.000  H
  C33      1.0000 0.50865  0.11029  0.35488  Biso   1.000  C
  H16      1.0000 0.59412  0.14547  0.46508  Biso   1.000  H
  C34      1.0000 0.56102  0.02411  0.27863  Biso   1.000  C
  H17      1.0000 0.68391  0.00417  0.33652  Biso   1.000  H
  H18      1.0000 0.99052  0.10719  0.59120  Biso   1.000  H
  H19      1.0000 0.04921  0.04723  0.66833  Biso   1.000  H
  H20      1.0000 0.06961  0.16108  0.65519  Biso   1.000  H
  H21      1.0000 0.99052  0.39281  0.59120  Biso   1.000  H
  H22      1.0000 0.04921  0.45277  0.66833  Biso   1.000  H
  H23      1.0000 0.06961  0.33892  0.65519  Biso   1.000  H
  C35      1.0000 0.06871  0.42632  0.21999  Biso   1.000  C
  H24      1.0000 0.14783  0.35817  0.32083  Biso   1.000  H
  H25      1.0000 0.00981  0.49992  0.11781  Biso   1.000  H
  C36      1.0000 0.27471  0.42480  0.84191  Biso   1.000  C
  H26      1.0000 0.38279  0.35923  0.88382  Biso   1.000  H
  H27      1.0000 0.17192  0.49962  0.82110  Biso   1.000  H
  C37      1.0000 0.49590  0.06390  0.28409  Biso   1.000  C
  H28      1.0000 0.46472  0.13811  0.35982  Biso   1.000  H
  H29      1.0000 0.55300  0.99174  0.23178  Biso   1.000  H
  O3       1.0000 0.00204  0.42420  0.23481  Biso   1.000  O
  O4       1.0000 0.25580  0.42427  0.76205  Biso   1.000  O
  C38      1.0000 0.41366  0.05966  0.21871  Biso   1.000  C
  C39      1.0000 0.97575  0.33308  0.24672  Biso   1.000  C
  C40      1.0000 0.24623  0.33399  0.72625  Biso   1.000  C
  C41      1.0000 0.34685  0.05807  0.23335  Biso   1.000  C
  C42      1.0000 0.40024  0.06019  0.14158  Biso   1.000  C
  N5       1.0000 0.00779  0.25000  0.23428  Biso   1.000  N
  N6       1.0000 0.92064  0.34104  0.26980  Biso   1.000  N
  N7       1.0000 0.25229  0.25000  0.76740  Biso   1.000  N
  N8       1.0000 0.23188  0.34074  0.65343  Biso   1.000  N
  C43      1.0000 0.26913  0.06019  0.17326  Biso   1.000  C
  H30      1.0000 0.35531  0.05541  0.28549  Biso   1.000  H
  C44      1.0000 0.32254  0.06057  0.07974  Biso   1.000  C
  H31      1.0000 0.44462  0.06026  0.13089  Biso   1.000  H
  C45      1.0000 0.97575  0.16692  0.24672  Biso   1.000  C
  C46      1.0000 0.89400  0.25000  0.28177  Biso   1.000  C
  C47      1.0000 0.24623  0.16601  0.72625  Biso   1.000  C
  C48      1.0000 0.22346  0.25000  0.61768  Biso   1.000  C
  C49      1.0000 0.19912  0.06087  0.18976  Biso   1.000  C
  C50      1.0000 0.25794  0.06170  0.09625  Biso   1.000  C
  C51      1.0000 0.30767  0.06352  0.99744  Biso   1.000  C
  O5       1.0000 0.00204  0.07580  0.23481  Biso   1.000  O
  N9       1.0000 0.92064  0.15896  0.26980  Biso   1.000  N
  N10      1.0000 0.83871  0.25000  0.30682  Biso   1.000  N
  O6       1.0000 0.25580  0.07573  0.76205  Biso   1.000  O
  N11      1.0000 0.23188  0.15926  0.65343  Biso   1.000  N
  N12      1.0000 0.20760  0.25000  0.54335  Biso   1.000  N
  C52      1.0000 0.20684  0.10711  0.25811  Biso   1.000  C
  C53      1.0000 0.12707  0.02062  0.13937  Biso   1.000  C
  H32      1.0000 0.20510  0.06360  0.05458  Biso   1.000  H
  C54      1.0000 0.36188  0.10544  0.97547  Biso   1.000  C
  C55      1.0000 0.23743  0.02297  0.93810  Biso   1.000  C
  C56      1.0000 0.06871  0.07368  0.21999  Biso   1.000  C
  C57      1.0000 0.81269  0.15456  0.32623  Biso   1.000  C
  C58      1.0000 0.81269  0.34544  0.32623  Biso   1.000  C
  C59      1.0000 0.27471  0.07520  0.84191  Biso   1.000  C
  C60      1.0000 0.19764  0.15388  0.50080  Biso   1.000  C
  C61      1.0000 0.19764  0.34612  0.50080  Biso   1.000  C
  C62      1.0000 0.14199  0.11219  0.27375  Biso   1.000  C
  H33      1.0000 0.25684  0.13508  0.29392  Biso   1.000  H
  C63      1.0000 0.05997  0.02737  0.15373  Biso   1.000  C
  H34      1.0000 0.12168  0.98742  0.09369  Biso   1.000  H
  H35      1.0000 0.41151  0.13061  0.01441  Biso   1.000  H
  C64      1.0000 0.34507  0.11143  0.89759  Biso   1.000  C
  H36      1.0000 0.20028  0.99068  0.95141  Biso   1.000  H
  C65      1.0000 0.22007  0.02827  0.86051  Biso   1.000  C
  C66      1.0000 0.87160  0.10847  0.40394  Biso   1.000  C
  H37      1.0000 0.80291  0.10491  0.28450  Biso   1.000  H
  H38      1.0000 0.76110  0.16624  0.32699  Biso   1.000  H
  C67      1.0000 0.87160  0.39153  0.40394  Biso   1.000  C
  H39      1.0000 0.80291  0.39509  0.28450  Biso   1.000  H
  H40      1.0000 0.76110  0.33376  0.32699  Biso   1.000  H
  C68      1.0000 0.11214  0.11613  0.46209  Biso   1.000  C
  H41      1.0000 0.23230  0.10158  0.53748  Biso   1.000  H
  H42      1.0000 0.21559  0.16381  0.46070  Biso   1.000  H
  C69      1.0000 0.11214  0.38387  0.46209  Biso   1.000  C
  H43      1.0000 0.23230  0.39842  0.53748  Biso   1.000  H
  H44      1.0000 0.21559  0.33619  0.46070  Biso   1.000  H
  H45      1.0000 0.14783  0.14183  0.32083  Biso   1.000  H
  H46      1.0000 0.00981  0.00008  0.11781  Biso   1.000  H
  H47      1.0000 0.38279  0.14077  0.88382  Biso   1.000  H
  H48      1.0000 0.17192  0.00038  0.82110  Biso   1.000  H
  H49      1.0000 0.84952  0.04503  0.41231  Biso   1.000  H
  H50      1.0000 0.88054  0.15608  0.44590  Biso   1.000  H
  H51      1.0000 0.92240  0.09460  0.40342  Biso   1.000  H
  H52      1.0000 0.84952  0.45497  0.41231  Biso   1.000  H
  H53      1.0000 0.88054  0.34392  0.44590  Biso   1.000  H
  H54      1.0000 0.92240  0.40540  0.40342  Biso   1.000  H
  H55      1.0000 0.11009  0.04889  0.43978  Biso   1.000  H
  H56      1.0000 0.07868  0.16320  0.42077  Biso   1.000  H
  H57      1.0000 0.09236  0.11181  0.50080  Biso   1.000  H
  H58      1.0000 0.11009  0.45111  0.43978  Biso   1.000  H
  H59      1.0000 0.07868  0.33680  0.42077  Biso   1.000  H
  H60      1.0000 0.09236  0.38819  0.50080  Biso   1.000  H
  C70      1.0000 0.41459  0.61537  0.58266  Biso   1.000  C
  C71      1.0000 0.35140  0.57565  0.59161  Biso   1.000  C
  C72      1.0000 0.49137  0.61029  0.64514  Biso   1.000  C
  H61      1.0000 0.40592  0.64547  0.53488  Biso   1.000  H
  O7       1.0000 0.27301  0.57633  0.52832  Biso   1.000  O
  C73      1.0000 0.36069  0.53040  0.65891  Biso   1.000  C
  H62      1.0000 0.53530  0.63811  0.64020  Biso   1.000  H
  C74      1.0000 0.50417  0.56390  0.71593  Biso   1.000  C
  C75      1.0000 0.23852  0.66654  0.49902  Biso   1.000  C
  H63      1.0000 0.31612  0.50417  0.66350  Biso   1.000  H
  C76      1.0000 0.43900  0.52411  0.72139  Biso   1.000  C
  C77      1.0000 0.58642  0.55966  0.78132  Biso   1.000  C
  N13      1.0000 0.27583  0.75000  0.53727  Biso   1.000  N
  N14      1.0000 0.16943  0.65911  0.43486  Biso   1.000  N
  H64      1.0000 0.44702  0.49174  0.76824  Biso   1.000  H
  C78      1.0000 0.65317  0.55807  0.76667  Biso   1.000  C
  C79      1.0000 0.59979  0.56019  0.85844  Biso   1.000  C
  C80      1.0000 0.23852  0.83346  0.49902  Biso   1.000  C
  C81      1.0000 0.13526  0.75000  0.40713  Biso   1.000  C
  H65      1.0000 0.64472  0.55541  0.71453  Biso   1.000  H
  C82      1.0000 0.73089  0.56019  0.82677  Biso   1.000  C
  H66      1.0000 0.55546  0.56026  0.86914  Biso   1.000  H
  C83      1.0000 0.67753  0.56057  0.92028  Biso   1.000  C
  O8       1.0000 0.27301  0.92367  0.52832  Biso   1.000  O
  N15      1.0000 0.16943  0.84089  0.43486  Biso   1.000  N
  N16      1.0000 0.06248  0.75000  0.34425  Biso   1.000  N
  C84      1.0000 0.80095  0.56087  0.81026  Biso   1.000  C
  C85      1.0000 0.74208  0.56170  0.90378  Biso   1.000  C
  C86      1.0000 0.69235  0.56352  0.00258  Biso   1.000  C
  C87      1.0000 0.35140  0.92435  0.59161  Biso   1.000  C
  C88      1.0000 0.01995  0.65274  0.31246  Biso   1.000  C
  C89      1.0000 0.01995  0.84726  0.31246  Biso   1.000  C
  C90      1.0000 0.79324  0.60711  0.74191  Biso   1.000  C
  C91      1.0000 0.87295  0.52062  0.86065  Biso   1.000  C
  H67      1.0000 0.79494  0.56360  0.94539  Biso   1.000  H
  C92      1.0000 0.63820  0.60544  0.02455  Biso   1.000  C
  C93      1.0000 0.76265  0.52297  0.06192  Biso   1.000  C
  C94      1.0000 0.41459  0.88463  0.58266  Biso   1.000  C
  C95      1.0000 0.36069  0.96960  0.65891  Biso   1.000  C
  H68      1.0000 0.05961  0.60089  0.31641  Biso   1.000  H
  C96      1.0000 0.97365  0.61363  0.35297  Biso   1.000  C
  H69      1.0000 0.98251  0.66222  0.25660  Biso   1.000  H
  H70      1.0000 0.05961  0.89911  0.31641  Biso   1.000  H
  C97      1.0000 0.97365  0.88637  0.35297  Biso   1.000  C
  H71      1.0000 0.98251  0.83778  0.25660  Biso   1.000  H
  C98      1.0000 0.85804  0.61219  0.72628  Biso   1.000  C
  H72      1.0000 0.74324  0.63508  0.70611  Biso   1.000  H
  C99      1.0000 0.94005  0.52737  0.84629  Biso   1.000  C
  H73      1.0000 0.87834  0.48742  0.90633  Biso   1.000  H
  H74      1.0000 0.58851  0.63061  0.98561  Biso   1.000  H
  C100     1.0000 0.65500  0.61143  0.10243  Biso   1.000  C
  C101     1.0000 0.77995  0.52827  0.13951  Biso   1.000  C
  H75      1.0000 0.79974  0.49068  0.04861  Biso   1.000  H
  C102     1.0000 0.49137  0.88971  0.64514  Biso   1.000  C
  H76      1.0000 0.40592  0.85453  0.53488  Biso   1.000  H
  H77      1.0000 0.31612  0.99583  0.66350  Biso   1.000  H
  C103     1.0000 0.43900  0.97589  0.72139  Biso   1.000  C
  H78      1.0000 0.00950  0.60719  0.40882  Biso   1.000  H
  H79      1.0000 0.95081  0.54723  0.33169  Biso   1.000  H
  H80      1.0000 0.93041  0.66108  0.34483  Biso   1.000  H
  H81      1.0000 0.00950  0.89281  0.40882  Biso   1.000  H
  H82      1.0000 0.95081  0.95277  0.33169  Biso   1.000  H
  H83      1.0000 0.93041  0.83892  0.34483  Biso   1.000  H
  H84      1.0000 0.85225  0.64183  0.67920  Biso   1.000  H
  C104     1.0000 0.93131  0.57368  0.78004  Biso   1.000  C
  H85      1.0000 0.99021  0.50008  0.88221  Biso   1.000  H
  H86      1.0000 0.61723  0.64077  0.11621  Biso   1.000  H
  C105     1.0000 0.72532  0.57520  0.15811  Biso   1.000  C
  H87      1.0000 0.82816  0.50038  0.17892  Biso   1.000  H
  H88      1.0000 0.53530  0.86189  0.64020  Biso   1.000  H
  C106     1.0000 0.50417  0.93610  0.71593  Biso   1.000  C
  H89      1.0000 0.44702  0.00826  0.76824  Biso   1.000  H
  O9       1.0000 0.99804  0.57580  0.76522  Biso   1.000  O
  O10      1.0000 0.74422  0.57573  0.23797  Biso   1.000  O
  C107     1.0000 0.58642  0.94034  0.78132  Biso   1.000  C
  C108     1.0000 0.02427  0.66692  0.75330  Biso   1.000  C
  C109     1.0000 0.75379  0.66601  0.27377  Biso   1.000  C
  C110     1.0000 0.65317  0.94193  0.76667  Biso   1.000  C
  C111     1.0000 0.59979  0.93981  0.85844  Biso   1.000  C
  N17      1.0000 0.99224  0.75000  0.76574  Biso   1.000  N
  N18      1.0000 0.07939  0.65896  0.73023  Biso   1.000  N
  N19      1.0000 0.76819  0.65926  0.34660  Biso   1.000  N
  N20      1.0000 0.74774  0.75000  0.23262  Biso   1.000  N
  H90      1.0000 0.64472  0.94459  0.71453  Biso   1.000  H
  C112     1.0000 0.73089  0.93981  0.82677  Biso   1.000  C
  H91      1.0000 0.55546  0.93974  0.86914  Biso   1.000  H
  C113     1.0000 0.67753  0.93943  0.92028  Biso   1.000  C
  C114     1.0000 0.02427  0.83308  0.75330  Biso   1.000  C
  C115     1.0000 0.10602  0.75000  0.71825  Biso   1.000  C
  C116     1.0000 0.77656  0.75000  0.38234  Biso   1.000  C
  C117     1.0000 0.75379  0.83399  0.27377  Biso   1.000  C
  C118     1.0000 0.80095  0.93913  0.81026  Biso   1.000  C
  C119     1.0000 0.74208  0.93830  0.90378  Biso   1.000  C
  C120     1.0000 0.69235  0.93648  0.00258  Biso   1.000  C
  O11      1.0000 0.99804  0.92420  0.76522  Biso   1.000  O
  N21      1.0000 0.07939  0.84104  0.73023  Biso   1.000  N
  N22      1.0000 0.16131  0.75000  0.69320  Biso   1.000  N
  N23      1.0000 0.79240  0.75000  0.45662  Biso   1.000  N
  N24      1.0000 0.76819  0.84074  0.34660  Biso   1.000  N
  O12      1.0000 0.74422  0.92427  0.23797  Biso   1.000  O
  C121     1.0000 0.79324  0.89289  0.74191  Biso   1.000  C
  C122     1.0000 0.87295  0.97938  0.86065  Biso   1.000  C
  H92      1.0000 0.79494  0.93640  0.94539  Biso   1.000  H
  C123     1.0000 0.63820  0.89456  0.02455  Biso   1.000  C
  C124     1.0000 0.76265  0.97703  0.06192  Biso   1.000  C
  C125     1.0000 0.93131  0.92632  0.78004  Biso   1.000  C
  C126     1.0000 0.18738  0.65456  0.67379  Biso   1.000  C
  C127     1.0000 0.18738  0.84544  0.67379  Biso   1.000  C
  C128     1.0000 0.80238  0.65388  0.49922  Biso   1.000  C
  C129     1.0000 0.80238  0.84612  0.49922  Biso   1.000  C
  C130     1.0000 0.72532  0.92480  0.15811  Biso   1.000  C
  C131     1.0000 0.85804  0.88781  0.72628  Biso   1.000  C
  H93      1.0000 0.74324  0.86492  0.70611  Biso   1.000  H
  C132     1.0000 0.94005  0.97263  0.84629  Biso   1.000  C
  H94      1.0000 0.87834  0.01258  0.90633  Biso   1.000  H
  H95      1.0000 0.58851  0.86939  0.98561  Biso   1.000  H
  C133     1.0000 0.65500  0.88857  0.10243  Biso   1.000  C
  C134     1.0000 0.77995  0.97173  0.13951  Biso   1.000  C
  H96      1.0000 0.79974  0.00932  0.04861  Biso   1.000  H
  C135     1.0000 0.12848  0.60847  0.59608  Biso   1.000  C
  H97      1.0000 0.19711  0.60491  0.71552  Biso   1.000  H
  H98      1.0000 0.23892  0.66624  0.67304  Biso   1.000  H
  C136     1.0000 0.12848  0.89153  0.59608  Biso   1.000  C
  H99      1.0000 0.19711  0.89509  0.71552  Biso   1.000  H
  H100     1.0000 0.23892  0.83376  0.67304  Biso   1.000  H
  C137     1.0000 0.88793  0.61613  0.53793  Biso   1.000  C
  H101     1.0000 0.76778  0.60158  0.46255  Biso   1.000  H
  H102     1.0000 0.78448  0.66381  0.53932  Biso   1.000  H
  C138     1.0000 0.88793  0.88387  0.53793  Biso   1.000  C
  H103     1.0000 0.76778  0.89842  0.46255  Biso   1.000  H
  H104     1.0000 0.78448  0.83619  0.53932  Biso   1.000  H
  H105     1.0000 0.85225  0.85817  0.67920  Biso   1.000  H
  H106     1.0000 0.99021  0.99992  0.88221  Biso   1.000  H
  H107     1.0000 0.61723  0.85923  0.11621  Biso   1.000  H
  H108     1.0000 0.82816  0.99962  0.17892  Biso   1.000  H
  H109     1.0000 0.15050  0.54503  0.58772  Biso   1.000  H
  H110     1.0000 0.11954  0.65608  0.55412  Biso   1.000  H
  H111     1.0000 0.07762  0.59460  0.59661  Biso   1.000  H
  H112     1.0000 0.15050  0.95497  0.58772  Biso   1.000  H
  H113     1.0000 0.11954  0.84392  0.55412  Biso   1.000  H
  H114     1.0000 0.07762  0.90540  0.59661  Biso   1.000  H
  H115     1.0000 0.88998  0.54889  0.56025  Biso   1.000  H
  H116     1.0000 0.92140  0.66320  0.57925  Biso   1.000  H
  H117     1.0000 0.90766  0.61181  0.49922  Biso   1.000  H
  H118     1.0000 0.88998  0.95111  0.56025  Biso   1.000  H
  H119     1.0000 0.92140  0.83680  0.57925  Biso   1.000  H
  H120     1.0000 0.90766  0.88819  0.49922  Biso   1.000  H
