data_image0
_cell_length_a       13.61
_cell_length_b       18.087
_cell_length_c       21.227
_cell_angle_alpha    90
_cell_angle_beta     95.04
_cell_angle_gamma    90

_symmetry_space_group_name_H-M    "P 1"
_symmetry_int_tables_number       1

loop_
  _symmetry_equiv_pos_as_xyz
  'x, y, z'

loop_
  _atom_site_label
  _atom_site_occupancy
  _atom_site_fract_x
  _atom_site_fract_y
  _atom_site_fract_z
  _atom_site_thermal_displace_type
  _atom_site_B_iso_or_equiv
  _atom_site_type_symbol
  C1       1.0000 0.61528  0.57798  0.51100  Biso   1.000  C
  O1       1.0000 0.67906  0.55454  0.46758  Biso   1.000  O
  H1       1.0000 0.65077  0.60878  0.54424  Biso   1.000  H
  H2       1.0000 0.58604  0.53508  0.53143  Biso   1.000  H
  C2       1.0000 0.53770  0.62172  0.47520  Biso   1.000  C
  C3       1.0000 0.75693  0.50915  0.48683  Biso   1.000  C
  H3       1.0000 0.56807  0.66285  0.45387  Biso   1.000  H
  H4       1.0000 0.49194  0.64123  0.50423  Biso   1.000  H
  H5       1.0000 0.50163  0.59009  0.44356  Biso   1.000  H
  C4       1.0000 0.82369  0.49511  0.44266  Biso   1.000  C
  C5       1.0000 0.77197  0.47835  0.54727  Biso   1.000  C
  C6       1.0000 0.81075  0.52673  0.37659  Biso   1.000  C
  C7       1.0000 0.90225  0.44866  0.45987  Biso   1.000  C
  C8       1.0000 0.84989  0.43191  0.56411  Biso   1.000  C
  H6       1.0000 0.72691  0.48980  0.57763  Biso   1.000  H
  C9       1.0000 0.76447  0.47012  0.33058  Biso   1.000  C
  H7       1.0000 0.87572  0.54183  0.36330  Biso   1.000  H
  H8       1.0000 0.76823  0.57113  0.37626  Biso   1.000  H
  C10      1.0000 0.91525  0.41604  0.51942  Biso   1.000  C
  H9       1.0000 0.94872  0.43871  0.43008  Biso   1.000  H
  C11      1.0000 0.86445  0.39769  0.63017  Biso   1.000  C
  C12      1.0000 0.66420  0.46050  0.32377  Biso   1.000  C
  C13      1.0000 0.82176  0.42329  0.29610  Biso   1.000  C
  O2       1.0000 0.98964  0.36883  0.53786  Biso   1.000  O
  C14      1.0000 0.81987  0.32117  0.62923  Biso   1.000  C
  H10      1.0000 0.93570  0.39476  0.64398  Biso   1.000  H
  H11      1.0000 0.83255  0.42915  0.66068  Biso   1.000  H
  C15      1.0000 0.61928  0.40759  0.28338  Biso   1.000  C
  H12      1.0000 0.62408  0.49102  0.34736  Biso   1.000  H
  C16      1.0000 0.77818  0.37004  0.25633  Biso   1.000  C
  O3       1.0000 0.92236  0.43490  0.30419  Biso   1.000  O
  C17      1.0000 0.05224  0.34550  0.49170  Biso   1.000  C
  C18      1.0000 0.87296  0.26052  0.62100  Biso   1.000  C
  C19      1.0000 0.71459  0.31332  0.63793  Biso   1.000  C
  C20      1.0000 0.67638  0.36065  0.24914  Biso   1.000  C
  O4       1.0000 0.51840  0.39691  0.27529  Biso   1.000  O
  H13      1.0000 0.81860  0.33908  0.23334  Biso   1.000  H
  C21      1.0000 0.98455  0.38331  0.27818  Biso   1.000  C
  H14      1.0000 0.08982  0.38812  0.47699  Biso   1.000  H
  H15      1.0000 0.01265  0.32404  0.45481  Biso   1.000  H
  C22      1.0000 0.12133  0.28877  0.52140  Biso   1.000  C
  C23      1.0000 0.82867  0.18522  0.61897  Biso   1.000  C
  H16      1.0000 0.94138  0.26561  0.61627  Biso   1.000  H
  C24      1.0000 0.67117  0.23890  0.63419  Biso   1.000  C
  O5       1.0000 0.66487  0.36750  0.64933  Biso   1.000  O
  C25      1.0000 0.62918  0.30127  0.20549  Biso   1.000  C
  C26      1.0000 0.45681  0.44949  0.30040  Biso   1.000  C
  H17      1.0000 0.97104  0.38215  0.23159  Biso   1.000  H
  H18      1.0000 0.97235  0.33333  0.29478  Biso   1.000  H
  C27      1.0000 0.08806  0.40477  0.29520  Biso   1.000  C
  H19      1.0000 0.15248  0.30790  0.56155  Biso   1.000  H
  H20      1.0000 0.17239  0.27782  0.49293  Biso   1.000  H
  H21      1.0000 0.08471  0.24360  0.52925  Biso   1.000  H
  C28      1.0000 0.72150  0.17819  0.62450  Biso   1.000  C
  O6       1.0000 0.88067  0.13148  0.61287  Biso   1.000  O
  H22      1.0000 0.60271  0.23420  0.63911  Biso   1.000  H
  C29      1.0000 0.61356  0.22934  0.24053  Biso   1.000  C
  H23      1.0000 0.67200  0.29176  0.17101  Biso   1.000  H
  H24      1.0000 0.56482  0.31940  0.18619  Biso   1.000  H
  C30      1.0000 0.35335  0.42987  0.28158  Biso   1.000  C
  H25      1.0000 0.47144  0.49925  0.28437  Biso   1.000  H
  H26      1.0000 0.46843  0.45010  0.34713  Biso   1.000  H
  H27      1.0000 0.10245  0.40200  0.34122  Biso   1.000  H
  H28      1.0000 0.09853  0.45558  0.28101  Biso   1.000  H
  H29      1.0000 0.13191  0.37121  0.27472  Biso   1.000  H
  C31      1.0000 0.67773  0.10168  0.61826  Biso   1.000  C
  C32      1.0000 0.52499  0.21468  0.26441  Biso   1.000  C
  C33      1.0000 0.68827  0.17781  0.25112  Biso   1.000  C
  H30      1.0000 0.30973  0.46204  0.30371  Biso   1.000  H
  H31      1.0000 0.34185  0.37823  0.29260  Biso   1.000  H
  H32      1.0000 0.33980  0.43656  0.23580  Biso   1.000  H
  C34      1.0000 0.64967  0.08321  0.54912  Biso   1.000  C
  H33      1.0000 0.61854  0.09886  0.64209  Biso   1.000  H
  H34      1.0000 0.72631  0.06507  0.63656  Biso   1.000  H
  C35      1.0000 0.50857  0.15049  0.29799  Biso   1.000  C
  H35      1.0000 0.47316  0.24968  0.25775  Biso   1.000  H
  C36      1.0000 0.67319  0.11373  0.28536  Biso   1.000  C
  O7       1.0000 0.77568  0.19323  0.22525  Biso   1.000  O
  C37      1.0000 0.55717  0.09797  0.52074  Biso   1.000  C
  C38      1.0000 0.71890  0.05291  0.51279  Biso   1.000  C
  O8       1.0000 0.42077  0.13280  0.32154  Biso   1.000  O
  C39      1.0000 0.58366  0.10002  0.30972  Biso   1.000  C
  H36      1.0000 0.72511  0.07879  0.29213  Biso   1.000  H
  C40      1.0000 0.85941  0.15038  0.24587  Biso   1.000  C
  C41      1.0000 0.53369  0.07939  0.45713  Biso   1.000  C
  O9       1.0000 0.49257  0.12965  0.55820  Biso   1.000  O
  C42      1.0000 0.69626  0.03749  0.44838  Biso   1.000  C
  H37      1.0000 0.78309  0.04235  0.53185  Biso   1.000  H
  C43      1.0000 0.34401  0.18168  0.31478  Biso   1.000  C
  C44      1.0000 0.57445  0.03212  0.35138  Biso   1.000  C
  C45      1.0000 0.94381  0.17499  0.21301  Biso   1.000  C
  H38      1.0000 0.84597  0.09747  0.23684  Biso   1.000  H
  H39      1.0000 0.87442  0.15619  0.29217  Biso   1.000  H
  C46      1.0000 0.60155  0.04993  0.42043  Biso   1.000  C
  H40      1.0000 0.46836  0.08752  0.43888  Biso   1.000  H
  C47      1.0000 0.39660  0.14502  0.53077  Biso   1.000  C
  O10      1.0000 0.76290  0.01012  0.40974  Biso   1.000  O
  H41      1.0000 0.32879  0.19428  0.26966  Biso   1.000  H
  H42      1.0000 0.36165  0.22779  0.33838  Biso   1.000  H
  C48      1.0000 0.25571  0.14591  0.34060  Biso   1.000  C
  H43      1.0000 0.50589  0.01349  0.34599  Biso   1.000  H
  H44      1.0000 0.61845  0.99265  0.33791  Biso   1.000  H
  H45      1.0000 0.95360  0.22817  0.21958  Biso   1.000  H
  H46      1.0000 0.93097  0.16493  0.16761  Biso   1.000  H
  H47      1.0000 0.00311  0.14834  0.22965  Biso   1.000  H
  H48      1.0000 0.36627  0.09968  0.51156  Biso   1.000  H
  H49      1.0000 0.39894  0.18295  0.49738  Biso   1.000  H
  C49      1.0000 0.33696  0.17272  0.58241  Biso   1.000  C
  C50      1.0000 0.86363  0.00381  0.43438  Biso   1.000  C
  H50      1.0000 0.27571  0.12296  0.38151  Biso   1.000  H
  H51      1.0000 0.22865  0.10803  0.31095  Biso   1.000  H
  H52      1.0000 0.20523  0.18350  0.34599  Biso   1.000  H
  H53      1.0000 0.33777  0.13573  0.61618  Biso   1.000  H
  H54      1.0000 0.26883  0.18135  0.56505  Biso   1.000  H
  H55      1.0000 0.36546  0.21905  0.59948  Biso   1.000  H
  H56      1.0000 0.88644  0.05125  0.45391  Biso   1.000  H
  H57      1.0000 0.87027  0.96495  0.46725  Biso   1.000  H
  C51      1.0000 0.91899  0.98651  0.38690  Biso   1.000  C
  H58      1.0000 0.98294  0.01161  0.39352  Biso   1.000  H
  H59      1.0000 0.88503  0.00243  0.34656  Biso   1.000  H
  H60      1.0000 0.92932  0.93294  0.38614  Biso   1.000  H
  C52      1.0000 0.38471  0.42202  0.48901  Biso   1.000  C
  O11      1.0000 0.32085  0.44546  0.53237  Biso   1.000  O
  H61      1.0000 0.34914  0.39122  0.45571  Biso   1.000  H
  H62      1.0000 0.41395  0.46492  0.46858  Biso   1.000  H
  C53      1.0000 0.46228  0.37828  0.52481  Biso   1.000  C
  C54      1.0000 0.24297  0.49085  0.51313  Biso   1.000  C
  H63      1.0000 0.43191  0.33715  0.54609  Biso   1.000  H
  H64      1.0000 0.50797  0.35871  0.49572  Biso   1.000  H
  H65      1.0000 0.49835  0.40985  0.55640  Biso   1.000  H
  C55      1.0000 0.17629  0.50489  0.55730  Biso   1.000  C
  C56      1.0000 0.22801  0.52165  0.45269  Biso   1.000  C
  C57      1.0000 0.09767  0.55134  0.54013  Biso   1.000  C
  C58      1.0000 0.18916  0.47327  0.62336  Biso   1.000  C
  C59      1.0000 0.15009  0.56803  0.43585  Biso   1.000  C
  H66      1.0000 0.27300  0.51015  0.42232  Biso   1.000  H
  C60      1.0000 0.08466  0.58396  0.48059  Biso   1.000  C
  H67      1.0000 0.05119  0.56129  0.56988  Biso   1.000  H
  C61      1.0000 0.23544  0.52988  0.66943  Biso   1.000  C
  H68      1.0000 0.12419  0.45817  0.63665  Biso   1.000  H
  H69      1.0000 0.23175  0.42882  0.62374  Biso   1.000  H
  C62      1.0000 0.13546  0.60231  0.36978  Biso   1.000  C
  O12      1.0000 0.01027  0.63117  0.46210  Biso   1.000  O
  C63      1.0000 0.17815  0.57671  0.70390  Biso   1.000  C
  C64      1.0000 0.33579  0.53945  0.67624  Biso   1.000  C
  C65      1.0000 0.18012  0.67877  0.37077  Biso   1.000  C
  H70      1.0000 0.06421  0.60524  0.35602  Biso   1.000  H
  H71      1.0000 0.16743  0.57085  0.33928  Biso   1.000  H
  C66      1.0000 0.94768  0.65450  0.50830  Biso   1.000  C
  O13      1.0000 0.07763  0.56505  0.69582  Biso   1.000  O
  C67      1.0000 0.22180  0.62990  0.74363  Biso   1.000  C
  C68      1.0000 0.38070  0.59241  0.71663  Biso   1.000  C
  H72      1.0000 0.37590  0.50898  0.65259  Biso   1.000  H
  C69      1.0000 0.12702  0.73948  0.37896  Biso   1.000  C
  C70      1.0000 0.28539  0.68668  0.36207  Biso   1.000  C
  H73      1.0000 0.91016  0.61188  0.52301  Biso   1.000  H
  H74      1.0000 0.98726  0.67596  0.54514  Biso   1.000  H
  C71      1.0000 0.87858  0.71117  0.47860  Biso   1.000  C
  C72      1.0000 0.01536  0.61669  0.72178  Biso   1.000  C
  C73      1.0000 0.32360  0.63935  0.75087  Biso   1.000  C
  H75      1.0000 0.18138  0.66092  0.76661  Biso   1.000  H
  O14      1.0000 0.48151  0.60309  0.72467  Biso   1.000  O
  H76      1.0000 0.05860  0.73439  0.38369  Biso   1.000  H
  C74      1.0000 0.17131  0.81478  0.38099  Biso   1.000  C
  O15      1.0000 0.33512  0.63250  0.35068  Biso   1.000  O
  C75      1.0000 0.32881  0.76110  0.36576  Biso   1.000  C
  H77      1.0000 0.84750  0.69210  0.43840  Biso   1.000  H
  H78      1.0000 0.82752  0.72218  0.50702  Biso   1.000  H
  H79      1.0000 0.91520  0.75640  0.47075  Biso   1.000  H
  H80      1.0000 0.02894  0.61779  0.76836  Biso   1.000  H
  H81      1.0000 0.02763  0.66667  0.70518  Biso   1.000  H
  C76      1.0000 0.91185  0.59518  0.70480  Biso   1.000  C
  C77      1.0000 0.37080  0.69873  0.79447  Biso   1.000  C
  C78      1.0000 0.54318  0.55051  0.69960  Biso   1.000  C
  O16      1.0000 0.11931  0.86852  0.38709  Biso   1.000  O
  C79      1.0000 0.27848  0.82181  0.37546  Biso   1.000  C
  H82      1.0000 0.39727  0.76580  0.36084  Biso   1.000  H
  H83      1.0000 0.89754  0.59794  0.65879  Biso   1.000  H
  H84      1.0000 0.90137  0.54442  0.71894  Biso   1.000  H
  H85      1.0000 0.86800  0.62874  0.72523  Biso   1.000  H
  C80      1.0000 0.38635  0.77066  0.75943  Biso   1.000  C
  H86      1.0000 0.32799  0.70824  0.82899  Biso   1.000  H
  H87      1.0000 0.43509  0.68054  0.81381  Biso   1.000  H
  C81      1.0000 0.64656  0.57008  0.71838  Biso   1.000  C
  H88      1.0000 0.52855  0.50069  0.71563  Biso   1.000  H
  H89      1.0000 0.53148  0.54984  0.65288  Biso   1.000  H
  C82      1.0000 0.32217  0.89827  0.38170  Biso   1.000  C
  C83      1.0000 0.31165  0.82214  0.74888  Biso   1.000  C
  C84      1.0000 0.47500  0.78526  0.73559  Biso   1.000  C
  H90      1.0000 0.69025  0.53796  0.69624  Biso   1.000  H
  H91      1.0000 0.65813  0.62172  0.70736  Biso   1.000  H
  H92      1.0000 0.66018  0.56344  0.76415  Biso   1.000  H
  C85      1.0000 0.35032  0.91679  0.45089  Biso   1.000  C
  H93      1.0000 0.38144  0.90114  0.35786  Biso   1.000  H
  H94      1.0000 0.27360  0.93493  0.36340  Biso   1.000  H
  O17      1.0000 0.22430  0.80671  0.77475  Biso   1.000  O
  C86      1.0000 0.32679  0.88622  0.71464  Biso   1.000  C
  H95      1.0000 0.52683  0.75026  0.74226  Biso   1.000  H
  C87      1.0000 0.49134  0.84951  0.70201  Biso   1.000  C
  C88      1.0000 0.44281  0.90203  0.47922  Biso   1.000  C
  C89      1.0000 0.28108  0.94709  0.48721  Biso   1.000  C
  C90      1.0000 0.14057  0.84956  0.75408  Biso   1.000  C
  C91      1.0000 0.41626  0.89993  0.69028  Biso   1.000  C
  H96      1.0000 0.27487  0.92116  0.70783  Biso   1.000  H
  O18      1.0000 0.57914  0.86720  0.67841  Biso   1.000  O
  O19      1.0000 0.50741  0.87035  0.44176  Biso   1.000  O
  C92      1.0000 0.46629  0.92061  0.54283  Biso   1.000  C
  C93      1.0000 0.30364  0.96246  0.55157  Biso   1.000  C
  H97      1.0000 0.21689  0.95759  0.46810  Biso   1.000  H
  C94      1.0000 0.05618  0.82501  0.78700  Biso   1.000  C
  H98      1.0000 0.15394  0.90253  0.76311  Biso   1.000  H
  H99      1.0000 0.12557  0.84381  0.70783  Biso   1.000  H
  C95      1.0000 0.42546  0.96788  0.64857  Biso   1.000  C
  C96      1.0000 0.65597  0.81827  0.68518  Biso   1.000  C
  C97      1.0000 0.60338  0.85498  0.46919  Biso   1.000  C
  H100     1.0000 0.53162  0.91248  0.56113  Biso   1.000  H
  C98      1.0000 0.39837  0.95002  0.57957  Biso   1.000  C
  O20      1.0000 0.23708  0.98988  0.59021  Biso   1.000  O
  H101     1.0000 0.04632  0.77177  0.78042  Biso   1.000  H
  H102     1.0000 0.06901  0.83507  0.83235  Biso   1.000  H
  H103     1.0000 0.99680  0.85166  0.77030  Biso   1.000  H
  H104     1.0000 0.49409  0.98645  0.65396  Biso   1.000  H
  H105     1.0000 0.38153  0.00735  0.66205  Biso   1.000  H
  H106     1.0000 0.67119  0.80566  0.73034  Biso   1.000  H
  H107     1.0000 0.63834  0.77221  0.66162  Biso   1.000  H
  C99      1.0000 0.74428  0.85409  0.65940  Biso   1.000  C
  H108     1.0000 0.63371  0.90032  0.48844  Biso   1.000  H
  H109     1.0000 0.60097  0.81705  0.50258  Biso   1.000  H
  C100     1.0000 0.66295  0.82728  0.41759  Biso   1.000  C
  C101     1.0000 0.13627  0.99619  0.56557  Biso   1.000  C
  H110     1.0000 0.72419  0.87704  0.61845  Biso   1.000  H
  H111     1.0000 0.77134  0.89197  0.68905  Biso   1.000  H
  H112     1.0000 0.79475  0.81650  0.65396  Biso   1.000  H
  H113     1.0000 0.66214  0.86427  0.38378  Biso   1.000  H
  H114     1.0000 0.73116  0.81860  0.43495  Biso   1.000  H
  H115     1.0000 0.63445  0.78095  0.40047  Biso   1.000  H
  H116     1.0000 0.11355  0.94875  0.54609  Biso   1.000  H
  H117     1.0000 0.12964  0.03505  0.53270  Biso   1.000  H
  C102     1.0000 0.08099  0.01349  0.61310  Biso   1.000  C
  H118     1.0000 0.01704  0.98839  0.60643  Biso   1.000  H
  H119     1.0000 0.11488  0.99751  0.65340  Biso   1.000  H
  H120     1.0000 0.07058  0.06706  0.61381  Biso   1.000  H
  C103     1.0000 0.55615  0.67502  0.28697  Biso   1.000  C
  C104     1.0000 0.64055  0.65041  0.25410  Biso   1.000  C
  H121     1.0000 0.49685  0.64831  0.27032  Biso   1.000  H
  H122     1.0000 0.54636  0.72820  0.28045  Biso   1.000  H
  H123     1.0000 0.56898  0.66490  0.33237  Biso   1.000  H
  O21      1.0000 0.72427  0.69326  0.27472  Biso   1.000  O
  H124     1.0000 0.65391  0.59745  0.26314  Biso   1.000  H
  H125     1.0000 0.62554  0.65616  0.20785  Biso   1.000  H
  C105     1.0000 0.81169  0.67783  0.24890  Biso   1.000  C
  C106     1.0000 0.82677  0.61376  0.21466  Biso   1.000  C
  C107     1.0000 0.88639  0.72931  0.25945  Biso   1.000  C
  C108     1.0000 0.91630  0.60004  0.19031  Biso   1.000  C
  H126     1.0000 0.77484  0.57881  0.20785  Biso   1.000  H
  C109     1.0000 0.97497  0.71471  0.23556  Biso   1.000  C
  C110     1.0000 0.87077  0.80129  0.29449  Biso   1.000  C
  C111     1.0000 0.92550  0.53209  0.14859  Biso   1.000  C
  C112     1.0000 0.99138  0.65047  0.20199  Biso   1.000  C
  H127     1.0000 0.02680  0.74971  0.24228  Biso   1.000  H
  C113     1.0000 0.82357  0.86062  0.25084  Biso   1.000  C
  H128     1.0000 0.82796  0.79173  0.32902  Biso   1.000  H
  H129     1.0000 0.93507  0.81943  0.31383  Biso   1.000  H
  C114     1.0000 0.89841  0.54995  0.07955  Biso   1.000  C
  H130     1.0000 0.99406  0.51352  0.15398  Biso   1.000  H
  H131     1.0000 0.88150  0.49262  0.16207  Biso   1.000  H
  O22      1.0000 0.07919  0.63277  0.17844  Biso   1.000  O
  C115     1.0000 0.88068  0.90756  0.21665  Biso   1.000  C
  C116     1.0000 0.72178  0.87007  0.24365  Biso   1.000  C
  C117     1.0000 0.80369  0.53751  0.05160  Biso   1.000  C
  C118     1.0000 0.96627  0.57937  0.04285  Biso   1.000  C
  C119     1.0000 0.15594  0.68171  0.18520  Biso   1.000  C
  O23      1.0000 0.98156  0.89694  0.22469  Biso   1.000  O
  C120     1.0000 0.83576  0.96052  0.17626  Biso   1.000  C
  C121     1.0000 0.67820  0.92326  0.20393  Biso   1.000  C
  H132     1.0000 0.68135  0.83906  0.26664  Biso   1.000  H
  O24      1.0000 0.73705  0.51009  0.09023  Biso   1.000  O
  C122     1.0000 0.78104  0.55288  0.98714  Biso   1.000  C
  C123     1.0000 0.94278  0.59794  0.97919  Biso   1.000  C
  H133     1.0000 0.03159  0.58749  0.06110  Biso   1.000  H
  H134     1.0000 0.17117  0.69431  0.23036  Biso   1.000  H
  H135     1.0000 0.13831  0.72776  0.16160  Biso   1.000  H
  C124     1.0000 0.24425  0.64588  0.15938  Biso   1.000  C
  C125     1.0000 0.04314  0.94947  0.19958  Biso   1.000  C
  H136     1.0000 0.87587  0.99099  0.15261  Biso   1.000  H
  C126     1.0000 0.73549  0.97009  0.16945  Biso   1.000  C
  O25      1.0000 0.57760  0.93493  0.19584  Biso   1.000  O
  C127     1.0000 0.63625  0.50379  0.06559  Biso   1.000  C
  C128     1.0000 0.85028  0.58324  0.95082  Biso   1.000  C
  H137     1.0000 0.71686  0.54238  0.96808  Biso   1.000  H
  O26      1.0000 0.00737  0.62962  0.94174  Biso   1.000  O
  H138     1.0000 0.22424  0.62293  0.11847  Biso   1.000  H
  H139     1.0000 0.27131  0.60801  0.18908  Biso   1.000  H
  H140     1.0000 0.29472  0.68347  0.15398  Biso   1.000  H
  C129     1.0000 0.14660  0.92989  0.21840  Biso   1.000  C
  H141     1.0000 0.02851  0.99928  0.21561  Biso   1.000  H
  H142     1.0000 0.03152  0.95013  0.15285  Biso   1.000  H
  C130     1.0000 0.68921  0.02670  0.12339  Biso   1.000  C
  C131     1.0000 0.51540  0.88329  0.22180  Biso   1.000  C
  C132     1.0000 0.58096  0.48648  0.11308  Biso   1.000  C
  H143     1.0000 0.61352  0.55122  0.04611  Biso   1.000  H
  H144     1.0000 0.62961  0.46492  0.03273  Biso   1.000  H
  C133     1.0000 0.82221  0.60170  0.88167  Biso   1.000  C
  C134     1.0000 0.10334  0.64499  0.96917  Biso   1.000  C
  H145     1.0000 0.19023  0.96202  0.19626  Biso   1.000  H
  H146     1.0000 0.15810  0.87826  0.20738  Biso   1.000  H
  H147     1.0000 0.16015  0.93653  0.26418  Biso   1.000  H
  C135     1.0000 0.67626  0.99508  0.05732  Biso   1.000  C
  H148     1.0000 0.62424  0.04180  0.13668  Biso   1.000  H
  H149     1.0000 0.73173  0.07116  0.12376  Biso   1.000  H
  H150     1.0000 0.52891  0.88218  0.26839  Biso   1.000  H
  H151     1.0000 0.52760  0.83331  0.20520  Biso   1.000  H
  C136     1.0000 0.41189  0.90479  0.20478  Biso   1.000  C
  H152     1.0000 0.57063  0.43291  0.11383  Biso   1.000  H
  H153     1.0000 0.51701  0.51158  0.10646  Biso   1.000  H
  H154     1.0000 0.61492  0.50246  0.15342  Biso   1.000  H
  C137     1.0000 0.77845  0.67817  0.87543  Biso   1.000  C
  H155     1.0000 0.88140  0.59883  0.85784  Biso   1.000  H
  H156     1.0000 0.77364  0.56505  0.86337  Biso   1.000  H
  H157     1.0000 0.13367  0.59966  0.98837  Biso   1.000  H
  C138     1.0000 0.16299  0.67269  0.91757  Biso   1.000  C
  H158     1.0000 0.10102  0.68292  0.00260  Biso   1.000  H
  C139     1.0000 0.59771  0.94864  0.04015  Biso   1.000  C
  C140     1.0000 0.74295  0.00912  0.01315  Biso   1.000  C
  H159     1.0000 0.39751  0.90203  0.15876  Biso   1.000  H
  H160     1.0000 0.40142  0.95555  0.21897  Biso   1.000  H
  H161     1.0000 0.36804  0.87123  0.22525  Biso   1.000  H
  C141     1.0000 0.67127  0.68519  0.88096  Biso   1.000  C
  C142     1.0000 0.82877  0.73887  0.86574  Biso   1.000  C
  H162     1.0000 0.16218  0.63571  0.88375  Biso   1.000  H
  H163     1.0000 0.23113  0.68137  0.93493  Biso   1.000  H
  H164     1.0000 0.13449  0.71902  0.90045  Biso   1.000  H
  C143     1.0000 0.58470  0.91602  0.98056  Biso   1.000  C
  H165     1.0000 0.55124  0.93874  0.06990  Biso   1.000  H
  C144     1.0000 0.72797  0.97833  0.95266  Biso   1.000  C
  O27      1.0000 0.82090  0.05457  0.03240  Biso   1.000  O
  O28      1.0000 0.61928  0.63145  0.88707  Biso   1.000  O
  C145     1.0000 0.62698  0.76049  0.87893  Biso   1.000  C
  C146     1.0000 0.78535  0.81329  0.86200  Biso   1.000  C
  H166     1.0000 0.89724  0.73417  0.86082  Biso   1.000  H
  C147     1.0000 0.65006  0.93194  0.93582  Biso   1.000  C
  O29      1.0000 0.51031  0.86880  0.96207  Biso   1.000  O
  H167     1.0000 0.77304  0.98983  0.92230  Biso   1.000  H
  C148     1.0000 0.88467  0.07796  0.98893  Biso   1.000  C
  C149     1.0000 0.68008  0.82120  0.87070  Biso   1.000  C
  H168     1.0000 0.55856  0.76558  0.88366  Biso   1.000  H
  O30      1.0000 0.83508  0.86747  0.85060  Biso   1.000  O
  C150     1.0000 0.63550  0.89766  0.86976  Biso   1.000  C
  C151     1.0000 0.44772  0.84547  0.00828  Biso   1.000  C
  H169     1.0000 0.84911  0.10875  0.95569  Biso   1.000  H
  H170     1.0000 0.91391  0.03505  0.96850  Biso   1.000  H
  C152     1.0000 0.96225  0.12169  0.02478  Biso   1.000  C
  H171     1.0000 0.56425  0.89473  0.85599  Biso   1.000  H
  H172     1.0000 0.66739  0.92912  0.83925  Biso   1.000  H
  H173     1.0000 0.41013  0.88810  0.02298  Biso   1.000  H
  H174     1.0000 0.48731  0.82402  0.04516  Biso   1.000  H
  C153     1.0000 0.37862  0.78880  0.97858  Biso   1.000  C
  H175     1.0000 0.93189  0.16282  0.04611  Biso   1.000  H
  H176     1.0000 0.99833  0.09012  0.05642  Biso   1.000  H
  H177     1.0000 0.00801  0.14126  0.99570  Biso   1.000  H
  H178     1.0000 0.32756  0.77780  0.00705  Biso   1.000  H
  H179     1.0000 0.34747  0.80787  0.93838  Biso   1.000  H
  H180     1.0000 0.41524  0.74357  0.97073  Biso   1.000  H
  C154     1.0000 0.44376  0.32498  0.71298  Biso   1.000  C
  H181     1.0000 0.50313  0.35169  0.72963  Biso   1.000  H
  H182     1.0000 0.45363  0.27180  0.71956  Biso   1.000  H
  H183     1.0000 0.43093  0.33510  0.66763  Biso   1.000  H
  C155     1.0000 0.35937  0.34959  0.74590  Biso   1.000  C
  O31      1.0000 0.27564  0.30674  0.72523  Biso   1.000  O
  H184     1.0000 0.34600  0.40255  0.73687  Biso   1.000  H
  H185     1.0000 0.37437  0.34384  0.79215  Biso   1.000  H
  C156     1.0000 0.18829  0.32217  0.75110  Biso   1.000  C
  C157     1.0000 0.11359  0.27069  0.74056  Biso   1.000  C
  C158     1.0000 0.17315  0.38624  0.78534  Biso   1.000  C
  C159     1.0000 0.02501  0.28529  0.76439  Biso   1.000  C
  C160     1.0000 0.12921  0.19871  0.70546  Biso   1.000  C
  C161     1.0000 0.08368  0.39996  0.80970  Biso   1.000  C
  H186     1.0000 0.22514  0.42119  0.79215  Biso   1.000  H
  C162     1.0000 0.00860  0.34948  0.79797  Biso   1.000  C
  H187     1.0000 0.97311  0.25029  0.75772  Biso   1.000  H
  C163     1.0000 0.17634  0.13938  0.74912  Biso   1.000  C
  H188     1.0000 0.17195  0.20827  0.67099  Biso   1.000  H
  H189     1.0000 0.06485  0.18057  0.68617  Biso   1.000  H
  C164     1.0000 0.07448  0.46785  0.85136  Biso   1.000  C
  O32      1.0000 0.92079  0.36717  0.82152  Biso   1.000  O
  C165     1.0000 0.11931  0.09244  0.78336  Biso   1.000  C
  C166     1.0000 0.27821  0.12993  0.75635  Biso   1.000  C
  C167     1.0000 0.10157  0.45005  0.92041  Biso   1.000  C
  H190     1.0000 0.00593  0.48648  0.84602  Biso   1.000  H
  H191     1.0000 0.11848  0.50738  0.83788  Biso   1.000  H
  C168     1.0000 0.84397  0.31829  0.81481  Biso   1.000  C
  O33      1.0000 0.01842  0.10306  0.77527  Biso   1.000  O
  C169     1.0000 0.16415  0.03948  0.82374  Biso   1.000  C
  C170     1.0000 0.32179  0.07668  0.79608  Biso   1.000  C
  H192     1.0000 0.31863  0.16089  0.73332  Biso   1.000  H
  C171     1.0000 0.03364  0.42058  0.95711  Biso   1.000  C
  C172     1.0000 0.19629  0.46249  0.94836  Biso   1.000  C
  H193     1.0000 0.82875  0.30569  0.76964  Biso   1.000  H
  H194     1.0000 0.86160  0.27224  0.83836  Biso   1.000  H
  C173     1.0000 0.75566  0.35412  0.84058  Biso   1.000  C
  C174     1.0000 0.95676  0.05048  0.80038  Biso   1.000  C
  H195     1.0000 0.12404  0.00896  0.84739  Biso   1.000  H
  C175     1.0000 0.26450  0.02991  0.83055  Biso   1.000  C
  O34      1.0000 0.42231  0.06507  0.80416  Biso   1.000  O
  H196     1.0000 0.96832  0.41245  0.93885  Biso   1.000  H
  C176     1.0000 0.05720  0.40206  0.02076  Biso   1.000  C
  O35      1.0000 0.26286  0.48991  0.90977  Biso   1.000  O
  C177     1.0000 0.21886  0.44712  0.01282  Biso   1.000  C
  H197     1.0000 0.77574  0.37701  0.88149  Biso   1.000  H
  H198     1.0000 0.72860  0.39199  0.81093  Biso   1.000  H
  H199     1.0000 0.70519  0.31653  0.84597  Biso   1.000  H
  C178     1.0000 0.85338  0.07011  0.78161  Biso   1.000  C
  H200     1.0000 0.97139  0.00072  0.78435  Biso   1.000  H
  H201     1.0000 0.96846  0.04987  0.84711  Biso   1.000  H
  C179     1.0000 0.31077  0.97330  0.87657  Biso   1.000  C
  C180     1.0000 0.48459  0.11671  0.77820  Biso   1.000  C
  O36      1.0000 0.99261  0.37038  0.05827  Biso   1.000  O
  C181     1.0000 0.14970  0.41676  0.04914  Biso   1.000  C
  C182     1.0000 0.36366  0.49621  0.93436  Biso   1.000  C
  H202     1.0000 0.28305  0.45762  0.03188  Biso   1.000  H
  H203     1.0000 0.80975  0.03798  0.80369  Biso   1.000  H
  H204     1.0000 0.84181  0.12174  0.79263  Biso   1.000  H
  H205     1.0000 0.83976  0.06342  0.73583  Biso   1.000  H
  C183     1.0000 0.32365  0.00487  0.94264  Biso   1.000  C
  H206     1.0000 0.37575  0.95820  0.86333  Biso   1.000  H
  H207     1.0000 0.26819  0.92884  0.87624  Biso   1.000  H
  H208     1.0000 0.47100  0.11782  0.73157  Biso   1.000  H
  H209     1.0000 0.47231  0.16664  0.79480  Biso   1.000  H
  C184     1.0000 0.58809  0.09521  0.79518  Biso   1.000  C
  C185     1.0000 0.89657  0.35501  0.03084  Biso   1.000  C
  C186     1.0000 0.17777  0.39830  0.11828  Biso   1.000  C
  H210     1.0000 0.38640  0.44878  0.95389  Biso   1.000  H
  H211     1.0000 0.37029  0.53503  0.96723  Biso   1.000  H
  C187     1.0000 0.41895  0.51352  0.88688  Biso   1.000  C
  C188     1.0000 0.40227  0.05131  0.95985  Biso   1.000  C
  C189     1.0000 0.25697  0.99082  0.98686  Biso   1.000  C
  H212     1.0000 0.60247  0.09797  0.84119  Biso   1.000  H
  H213     1.0000 0.59856  0.04445  0.78099  Biso   1.000  H
  H214     1.0000 0.63194  0.12877  0.77475  Biso   1.000  H
  H215     1.0000 0.89896  0.31702  0.99736  Biso   1.000  H
  H216     1.0000 0.86631  0.40034  0.01159  Biso   1.000  H
  C190     1.0000 0.83700  0.32731  0.08243  Biso   1.000  C
  C191     1.0000 0.22146  0.32178  0.12452  Biso   1.000  C
  H217     1.0000 0.11851  0.40117  0.14217  Biso   1.000  H
  H218     1.0000 0.22634  0.43490  0.13658  Biso   1.000  H
  H219     1.0000 0.42936  0.56709  0.88617  Biso   1.000  H
  H220     1.0000 0.48290  0.48842  0.89355  Biso   1.000  H
  H221     1.0000 0.38506  0.49754  0.84659  Biso   1.000  H
  H222     1.0000 0.44874  0.06126  0.93006  Biso   1.000  H
  C192     1.0000 0.41529  0.08398  0.01944  Biso   1.000  C
  O37      1.0000 0.17908  0.94543  0.96756  Biso   1.000  O
  C193     1.0000 0.27194  0.02167  0.04734  Biso   1.000  C
  H223     1.0000 0.83780  0.36424  0.11620  Biso   1.000  H
  H224     1.0000 0.76879  0.31863  0.06508  Biso   1.000  H
  H225     1.0000 0.86549  0.28098  0.09951  Biso   1.000  H
  C194     1.0000 0.32863  0.31481  0.11899  Biso   1.000  C
  C195     1.0000 0.17114  0.26107  0.13427  Biso   1.000  C
  O38      1.0000 0.48967  0.13114  0.03788  Biso   1.000  O
  C196     1.0000 0.34985  0.06806  0.06418  Biso   1.000  C
  C197     1.0000 0.11531  0.92199  0.01102  Biso   1.000  C
  H226     1.0000 0.22694  0.01017  0.07766  Biso   1.000  H
  O39      1.0000 0.38070  0.36850  0.11289  Biso   1.000  O
  C198     1.0000 0.37300  0.23951  0.12103  Biso   1.000  C
  C199     1.0000 0.21455  0.18671  0.13796  Biso   1.000  C
  H227     1.0000 0.10274  0.26577  0.13914  Biso   1.000  H
  C200     1.0000 0.55226  0.15448  0.99168  Biso   1.000  C
  C201     1.0000 0.36449  0.10228  0.13025  Biso   1.000  C
  C202     1.0000 0.03766  0.87831  0.97517  Biso   1.000  C
  H228     1.0000 0.15080  0.89125  0.04427  Biso   1.000  H
  H229     1.0000 0.08600  0.96495  0.03145  Biso   1.000  H
  C203     1.0000 0.31990  0.17880  0.12925  Biso   1.000  C
  H230     1.0000 0.44134  0.23442  0.11630  Biso   1.000  H
  O40      1.0000 0.16490  0.13247  0.14935  Biso   1.000  O
  H231     1.0000 0.58978  0.11190  0.97697  Biso   1.000  H
  H232     1.0000 0.51268  0.17598  0.95479  Biso   1.000  H
  C204     1.0000 0.62136  0.21120  0.02143  Biso   1.000  C
  H233     1.0000 0.43574  0.10527  0.14401  Biso   1.000  H
  H234     1.0000 0.33259  0.07088  0.16070  Biso   1.000  H
  H235     1.0000 0.99197  0.85874  0.00426  Biso   1.000  H
  H236     1.0000 0.06803  0.83712  0.95389  Biso   1.000  H
  H237     1.0000 0.00159  0.90988  0.94358  Biso   1.000  H
  H238     1.0000 0.67242  0.22220  0.99296  Biso   1.000  H
  H239     1.0000 0.65244  0.19207  0.06158  Biso   1.000  H
  H240     1.0000 0.58475  0.25637  0.02928  Biso   1.000  H
