data_image0
_cell_length_a       11.599
_cell_length_b       12.272
_cell_length_c       21.607
_cell_angle_alpha    104.64
_cell_angle_beta     93.06
_cell_angle_gamma    92.35

_symmetry_space_group_name_H-M    "P 1"
_symmetry_int_tables_number       1

loop_
  _symmetry_equiv_pos_as_xyz
  'x, y, z'

loop_
  _atom_site_label
  _atom_site_occupancy
  _atom_site_fract_x
  _atom_site_fract_y
  _atom_site_fract_z
  _atom_site_thermal_displace_type
  _atom_site_B_iso_or_equiv
  _atom_site_type_symbol
  C1       1.0000 0.51430  0.54588  0.41673  Biso   1.000  C
  C2       1.0000 0.39636  0.52188  0.41505  Biso   1.000  C
  O1       1.0000 0.59504  0.46751  0.41582  Biso   1.000  O
  C3       1.0000 0.55835  0.65382  0.41989  Biso   1.000  C
  C4       1.0000 0.32424  0.60864  0.41663  Biso   1.000  C
  H1       1.0000 0.36679  0.44939  0.41290  Biso   1.000  H
  C5       1.0000 0.55664  0.35492  0.41429  Biso   1.000  C
  C6       1.0000 0.48571  0.73907  0.42033  Biso   1.000  C
  H2       1.0000 0.63778  0.66852  0.42157  Biso   1.000  H
  O2       1.0000 0.20653  0.59737  0.41697  Biso   1.000  O
  C7       1.0000 0.36730  0.71692  0.41841  Biso   1.000  C
  H3       1.0000 0.50473  0.32339  0.37680  Biso   1.000  H
  H4       1.0000 0.51596  0.35379  0.45221  Biso   1.000  H
  C8       1.0000 0.66180  0.28775  0.41218  Biso   1.000  C
  C9       1.0000 0.53405  0.85539  0.42220  Biso   1.000  C
  C10      1.0000 0.15414  0.48940  0.41409  Biso   1.000  C
  H5       1.0000 0.31701  0.77405  0.41831  Biso   1.000  H
  O3       1.0000 0.71162  0.28020  0.35292  Biso   1.000  O
  H6       1.0000 0.71714  0.32406  0.44741  Biso   1.000  H
  H7       1.0000 0.64070  0.21279  0.41649  Biso   1.000  H
  O4       1.0000 0.58615  0.84728  0.36098  Biso   1.000  O
  H8       1.0000 0.47298  0.90811  0.42752  Biso   1.000  H
  H9       1.0000 0.59187  0.88109  0.45757  Biso   1.000  H
  H10      1.0000 0.18069  0.46392  0.45120  Biso   1.000  H
  H11      1.0000 0.17399  0.43487  0.37570  Biso   1.000  H
  C11      1.0000 0.02644  0.50078  0.41328  Biso   1.000  C
  C12      1.0000 0.81217  0.21814  0.34732  Biso   1.000  C
  C13      1.0000 0.67989  0.90823  0.36069  Biso   1.000  C
  H12      1.0000 0.00808  0.56222  0.44890  Biso   1.000  H
  O5       1.0000 0.98773  0.52243  0.35532  Biso   1.000  O
  H13      1.0000 0.98796  0.43190  0.41788  Biso   1.000  H
  H14      1.0000 0.79248  0.14112  0.34851  Biso   1.000  H
  H15      1.0000 0.86759  0.25130  0.38298  Biso   1.000  H
  C14      1.0000 0.86402  0.21850  0.28591  Biso   1.000  C
  O6       1.0000 0.71632  0.97902  0.40748  Biso   1.000  O
  C15      1.0000 0.73164  0.88894  0.29818  Biso   1.000  C
  C16      1.0000 0.87250  0.55600  0.35489  Biso   1.000  C
  O7       1.0000 0.78706  0.16200  0.23370  Biso   1.000  O
  H16      1.0000 0.88017  0.29560  0.28380  Biso   1.000  H
  H17      1.0000 0.93632  0.18126  0.28361  Biso   1.000  H
  N1       1.0000 0.66282  0.84286  0.24612  Biso   1.000  N
  C17      1.0000 0.84741  0.92100  0.29621  Biso   1.000  C
  H18      1.0000 0.86214  0.61409  0.39358  Biso   1.000  H
  H19      1.0000 0.81960  0.49209  0.35369  Biso   1.000  H
  C18      1.0000 0.84712  0.59962  0.29827  Biso   1.000  C
  C19      1.0000 0.83261  0.16152  0.17440  Biso   1.000  C
  C20      1.0000 0.70902  0.83074  0.18979  Biso   1.000  C
  H20      1.0000 0.89300  0.95168  0.33380  Biso   1.000  H
  C21      1.0000 0.89296  0.90647  0.23778  Biso   1.000  C
  O8       1.0000 0.84361  0.51194  0.24056  Biso   1.000  O
  H21      1.0000 0.77337  0.63421  0.30192  Biso   1.000  H
  H22      1.0000 0.90620  0.65710  0.29679  Biso   1.000  H
  H23      1.0000 0.90458  0.12349  0.17090  Biso   1.000  H
  H24      1.0000 0.84890  0.23849  0.17200  Biso   1.000  H
  C22      1.0000 0.75011  0.10354  0.12090  Biso   1.000  C
  C23      1.0000 0.82317  0.86143  0.18332  Biso   1.000  C
  C24      1.0000 0.63130  0.78643  0.13150  Biso   1.000  C
  H25      1.0000 0.97013  0.92700  0.23500  Biso   1.000  H
  C25      1.0000 0.81880  0.55272  0.18562  Biso   1.000  C
  O9       1.0000 0.64844  0.16486  0.12253  Biso   1.000  O
  H26      1.0000 0.78498  0.09768  0.08049  Biso   1.000  H
  H27      1.0000 0.73036  0.02780  0.12440  Biso   1.000  H
  H28      1.0000 0.85183  0.85166  0.14291  Biso   1.000  H
  O10      1.0000 0.65736  0.79211  0.07991  Biso   1.000  O
  O11      1.0000 0.53228  0.74342  0.14032  Biso   1.000  O
  H29      1.0000 0.87792  0.60939  0.18322  Biso   1.000  H
  H30      1.0000 0.74492  0.58742  0.18878  Biso   1.000  H
  C26      1.0000 0.81489  0.45719  0.12641  Biso   1.000  C
  C27      1.0000 0.57509  0.12799  0.06592  Biso   1.000  C
  C28      1.0000 0.44966  0.70337  0.08552  Biso   1.000  C
  O12      1.0000 0.92546  0.41568  0.11989  Biso   1.000  O
  H31      1.0000 0.75946  0.39804  0.12982  Biso   1.000  H
  H32      1.0000 0.79119  0.48340  0.08912  Biso   1.000  H
  H33      1.0000 0.55046  0.04931  0.05978  Biso   1.000  H
  H34      1.0000 0.61691  0.13481  0.02919  Biso   1.000  H
  C29      1.0000 0.47192  0.19755  0.07061  Biso   1.000  C
  H35      1.0000 0.48714  0.70323  0.04640  Biso   1.000  H
  H36      1.0000 0.38654  0.75364  0.08869  Biso   1.000  H
  C30      1.0000 0.40290  0.58570  0.08284  Biso   1.000  C
  C31      1.0000 0.94248  0.34949  0.05719  Biso   1.000  C
  O13      1.0000 0.51171  0.31272  0.07627  Biso   1.000  O
  H37      1.0000 0.41982  0.17039  0.03269  Biso   1.000  H
  H38      1.0000 0.43075  0.19258  0.10781  Biso   1.000  H
  C32      1.0000 0.28598  0.56214  0.07651  Biso   1.000  C
  C33      1.0000 0.47651  0.50000  0.08269  Biso   1.000  C
  C34      1.0000 0.06810  0.33013  0.05441  Biso   1.000  C
  H39      1.0000 0.91811  0.38890  0.02550  Biso   1.000  H
  H40      1.0000 0.89783  0.27814  0.04851  Biso   1.000  H
  C35      1.0000 0.43216  0.39158  0.07680  Biso   1.000  C
  C36      1.0000 0.24146  0.45236  0.06942  Biso   1.000  C
  H41      1.0000 0.23593  0.61961  0.07699  Biso   1.000  H
  H42      1.0000 0.55619  0.51553  0.08658  Biso   1.000  H
  O14      1.0000 0.12397  0.43981  0.06127  Biso   1.000  O
  H43      1.0000 0.09486  0.29788  0.08878  Biso   1.000  H
  H44      1.0000 0.08366  0.27937  0.01371  Biso   1.000  H
  C37      1.0000 0.31371  0.36631  0.06975  Biso   1.000  C
  H45      1.0000 0.28389  0.29298  0.06539  Biso   1.000  H
  C38      1.0000 0.48549  0.45406  0.58327  Biso   1.000  C
  C39      1.0000 0.44153  0.34621  0.58011  Biso   1.000  C
  O15      1.0000 0.40476  0.53252  0.58418  Biso   1.000  O
  C40      1.0000 0.60352  0.47806  0.58495  Biso   1.000  C
  C41      1.0000 0.51409  0.26087  0.57967  Biso   1.000  C
  H46      1.0000 0.36201  0.33149  0.57838  Biso   1.000  H
  C42      1.0000 0.44316  0.64510  0.58571  Biso   1.000  C
  C43      1.0000 0.67556  0.39139  0.58337  Biso   1.000  C
  H47      1.0000 0.63301  0.55063  0.58710  Biso   1.000  H
  C44      1.0000 0.46583  0.14455  0.57780  Biso   1.000  C
  C45      1.0000 0.63249  0.28310  0.58159  Biso   1.000  C
  H48      1.0000 0.49507  0.67664  0.62320  Biso   1.000  H
  H49      1.0000 0.48392  0.64616  0.54780  Biso   1.000  H
  C46      1.0000 0.33799  0.71217  0.58778  Biso   1.000  C
  O16      1.0000 0.79326  0.40257  0.58303  Biso   1.000  O
  O17      1.0000 0.41373  0.15266  0.63902  Biso   1.000  O
  H50      1.0000 0.52681  0.09184  0.57248  Biso   1.000  H
  H51      1.0000 0.40791  0.11884  0.54238  Biso   1.000  H
  H52      1.0000 0.68279  0.22598  0.58169  Biso   1.000  H
  O18      1.0000 0.28817  0.71981  0.64703  Biso   1.000  O
  H53      1.0000 0.28274  0.67588  0.55259  Biso   1.000  H
  H54      1.0000 0.35910  0.78724  0.58351  Biso   1.000  H
  C47      1.0000 0.84565  0.51062  0.58591  Biso   1.000  C
  C48      1.0000 0.31991  0.09179  0.63931  Biso   1.000  C
  C49      1.0000 0.18771  0.78189  0.65268  Biso   1.000  C
  H55      1.0000 0.81910  0.53610  0.54880  Biso   1.000  H
  H56      1.0000 0.82580  0.56508  0.62431  Biso   1.000  H
  C50      1.0000 0.97335  0.49914  0.58667  Biso   1.000  C
  O19      1.0000 0.28347  0.02101  0.59252  Biso   1.000  O
  C51      1.0000 0.26815  0.11107  0.70177  Biso   1.000  C
  H57      1.0000 0.20740  0.85891  0.65149  Biso   1.000  H
  H58      1.0000 0.13220  0.74870  0.61697  Biso   1.000  H
  C52      1.0000 0.13578  0.78152  0.71409  Biso   1.000  C
  H59      1.0000 0.99172  0.43781  0.55110  Biso   1.000  H
  O20      1.0000 0.01206  0.47759  0.64468  Biso   1.000  O
  H60      1.0000 0.01192  0.56811  0.58207  Biso   1.000  H
  N2       1.0000 0.33698  0.15717  0.75388  Biso   1.000  N
  C53      1.0000 0.15238  0.07894  0.70379  Biso   1.000  C
  O21      1.0000 0.21274  0.83803  0.76630  Biso   1.000  O
  H61      1.0000 0.11971  0.70442  0.71620  Biso   1.000  H
  H62      1.0000 0.06348  0.81869  0.71640  Biso   1.000  H
  C54      1.0000 0.12730  0.44402  0.64511  Biso   1.000  C
  C55      1.0000 0.29077  0.16928  0.81021  Biso   1.000  C
  H63      1.0000 0.10679  0.04826  0.66620  Biso   1.000  H
  C56      1.0000 0.10683  0.09345  0.76218  Biso   1.000  C
  C57      1.0000 0.16727  0.83851  0.82560  Biso   1.000  C
  H64      1.0000 0.13765  0.38591  0.60638  Biso   1.000  H
  H65      1.0000 0.18019  0.50793  0.64631  Biso   1.000  H
  C58      1.0000 0.15267  0.40038  0.70168  Biso   1.000  C
  C59      1.0000 0.17663  0.13859  0.81668  Biso   1.000  C
  C60      1.0000 0.36859  0.21360  0.86850  Biso   1.000  C
  H66      1.0000 0.02966  0.07295  0.76501  Biso   1.000  H
  H67      1.0000 0.09521  0.87646  0.82910  Biso   1.000  H
  H68      1.0000 0.15098  0.76146  0.82800  Biso   1.000  H
  C61      1.0000 0.24977  0.89649  0.87910  Biso   1.000  C
  O22      1.0000 0.15618  0.48807  0.75940  Biso   1.000  O
  H69      1.0000 0.22651  0.36582  0.69808  Biso   1.000  H
  H70      1.0000 0.09360  0.34292  0.70321  Biso   1.000  H
  H71      1.0000 0.14796  0.14836  0.85710  Biso   1.000  H
  O23      1.0000 0.34243  0.20784  0.92009  Biso   1.000  O
  O24      1.0000 0.46751  0.25661  0.85968  Biso   1.000  O
  O25      1.0000 0.35135  0.83508  0.87747  Biso   1.000  O
  H72      1.0000 0.21481  0.90226  0.91951  Biso   1.000  H
  H73      1.0000 0.26943  0.97223  0.87560  Biso   1.000  H
  C62      1.0000 0.18108  0.44730  0.81438  Biso   1.000  C
  C63      1.0000 0.55014  0.29666  0.91448  Biso   1.000  C
  C64      1.0000 0.42471  0.87195  0.93408  Biso   1.000  C
  H74      1.0000 0.12187  0.39056  0.81678  Biso   1.000  H
  H75      1.0000 0.25487  0.41258  0.81117  Biso   1.000  H
  C65      1.0000 0.18491  0.54275  0.87359  Biso   1.000  C
  H76      1.0000 0.51265  0.29679  0.95360  Biso   1.000  H
  H77      1.0000 0.61325  0.24636  0.91127  Biso   1.000  H
  C66      1.0000 0.59698  0.41424  0.91716  Biso   1.000  C
  H78      1.0000 0.44933  0.95070  0.94017  Biso   1.000  H
  H79      1.0000 0.38289  0.86522  0.97081  Biso   1.000  H
  C67      1.0000 0.52796  0.80248  0.92939  Biso   1.000  C
  O26      1.0000 0.07433  0.58426  0.88011  Biso   1.000  O
  H80      1.0000 0.24033  0.60198  0.87018  Biso   1.000  H
  H81      1.0000 0.20860  0.51654  0.91088  Biso   1.000  H
  C68      1.0000 0.52337  0.50000  0.91726  Biso   1.000  C
  C69      1.0000 0.71381  0.43788  0.92349  Biso   1.000  C
  O27      1.0000 0.48817  0.68731  0.92373  Biso   1.000  O
  H82      1.0000 0.58006  0.82956  0.96731  Biso   1.000  H
  H83      1.0000 0.56904  0.80736  0.89219  Biso   1.000  H
  C70      1.0000 0.05731  0.65046  0.94281  Biso   1.000  C
  H84      1.0000 0.44360  0.48447  0.91338  Biso   1.000  H
  C71      1.0000 0.56763  0.60837  0.92320  Biso   1.000  C
  C72      1.0000 0.75834  0.54767  0.93059  Biso   1.000  C
  H85      1.0000 0.76386  0.38042  0.92301  Biso   1.000  H
  C73      1.0000 0.93170  0.66989  0.94559  Biso   1.000  C
  H86      1.0000 0.08169  0.61104  0.97450  Biso   1.000  H
  H87      1.0000 0.10205  0.72189  0.95149  Biso   1.000  H
  C74      1.0000 0.68617  0.63372  0.93025  Biso   1.000  C
  O28      1.0000 0.87582  0.56022  0.93874  Biso   1.000  O
  H88      1.0000 0.90493  0.70205  0.91117  Biso   1.000  H
  H89      1.0000 0.91613  0.72057  0.98629  Biso   1.000  H
  H90      1.0000 0.71590  0.70696  0.93461  Biso   1.000  H
  Ne1      1.0000 0.43146  0.53002  0.24205  Biso   1.000  Ne
  He1      1.0000 0.35052  0.52956  0.24072  Biso   1.000  He
  He2      1.0000 0.49436  0.38451  0.24595  Biso   1.000  He
  He3      1.0000 0.21212  0.49576  0.24560  Biso   1.000  He
  Ar1      1.0000 0.42867  0.53137  0.25055  Biso   1.000  Ar
  Ne2      1.0000 0.56835  0.46998  0.75795  Biso   1.000  Ne
  He4      1.0000 0.65848  0.47877  0.75916  Biso   1.000  He
  He5      1.0000 0.49416  0.61546  0.75448  Biso   1.000  He
  He6      1.0000 0.78012  0.51012  0.75469  Biso   1.000  He
  Ar2      1.0000 0.57115  0.46863  0.74943  Biso   1.000  Ar
