data_image0
_cell_length_a       12.353
_cell_length_b       12.664
_cell_length_c       24.849
_cell_angle_alpha    99.05
_cell_angle_beta     93.88
_cell_angle_gamma    96.77

_symmetry_space_group_name_H-M    "P 1"
_symmetry_int_tables_number       1

loop_
  _symmetry_equiv_pos_as_xyz
  'x, y, z'

loop_
  _atom_site_label
  _atom_site_occupancy
  _atom_site_fract_x
  _atom_site_fract_y
  _atom_site_fract_z
  _atom_site_thermal_displace_type
  _atom_site_B_iso_or_equiv
  _atom_site_type_symbol
  C1       1.0000 0.43911  0.49435  0.43253  Biso   1.000  C
  N1       1.0000 0.53869  0.47087  0.41600  Biso   1.000  N
  N2       1.0000 0.42697  0.59766  0.42410  Biso   1.000  N
  O1       1.0000 0.37326  0.43372  0.45225  Biso   1.000  O
  C2       1.0000 0.58467  0.37607  0.42758  Biso   1.000  C
  C3       1.0000 0.60276  0.56426  0.40234  Biso   1.000  C
  C4       1.0000 0.33239  0.65004  0.43805  Biso   1.000  C
  C5       1.0000 0.52434  0.65038  0.40573  Biso   1.000  C
  N3       1.0000 0.59298  0.29866  0.37959  Biso   1.000  N
  H1       1.0000 0.65711  0.39827  0.44648  Biso   1.000  H
  H2       1.0000 0.53963  0.34164  0.45200  Biso   1.000  H
  N4       1.0000 0.63143  0.55338  0.34605  Biso   1.000  N
  H3       1.0000 0.66782  0.58787  0.42819  Biso   1.000  H
  N5       1.0000 0.25952  0.65968  0.39072  Biso   1.000  N
  H4       1.0000 0.35709  0.72157  0.45851  Biso   1.000  H
  H5       1.0000 0.29138  0.60957  0.46178  Biso   1.000  H
  N6       1.0000 0.51340  0.67117  0.34973  Biso   1.000  N
  H6       1.0000 0.55490  0.71559  0.43138  Biso   1.000  H
  C6       1.0000 0.52864  0.20049  0.36810  Biso   1.000  C
  C7       1.0000 0.68614  0.30330  0.34678  Biso   1.000  C
  C8       1.0000 0.71945  0.49421  0.32621  Biso   1.000  C
  C9       1.0000 0.58590  0.62316  0.31835  Biso   1.000  C
  C10      1.0000 0.16281  0.59256  0.37861  Biso   1.000  C
  C11      1.0000 0.26619  0.75146  0.36126  Biso   1.000  C
  C12      1.0000 0.46737  0.76602  0.33590  Biso   1.000  C
  N7       1.0000 0.56258  0.14259  0.32212  Biso   1.000  N
  O2       1.0000 0.45427  0.17094  0.39452  Biso   1.000  O
  C13      1.0000 0.66602  0.19076  0.30780  Biso   1.000  C
  H7       1.0000 0.75579  0.31283  0.36949  Biso   1.000  H
  N8       1.0000 0.68573  0.37924  0.30907  Biso   1.000  N
  H8       1.0000 0.74746  0.52419  0.29548  Biso   1.000  H
  H9       1.0000 0.77861  0.50456  0.35501  Biso   1.000  H
  O3       1.0000 0.60566  0.63915  0.27270  Biso   1.000  O
  N9       1.0000 0.10484  0.62729  0.33697  Biso   1.000  N
  O4       1.0000 0.13359  0.51714  0.40099  Biso   1.000  O
  C14      1.0000 0.15613  0.72740  0.32220  Biso   1.000  C
  C15      1.0000 0.28346  0.85849  0.40021  Biso   1.000  C
  N10      1.0000 0.34940  0.74737  0.32199  Biso   1.000  N
  H10      1.0000 0.48395  0.82428  0.36679  Biso   1.000  H
  H11      1.0000 0.50276  0.78867  0.30518  Biso   1.000  H
  C16      1.0000 0.52202  0.02917  0.30510  Biso   1.000  C
  N11      1.0000 0.66451  0.22090  0.25388  Biso   1.000  N
  H12      1.0000 0.72462  0.14696  0.31389  Biso   1.000  H
  C17      1.0000 0.68691  0.33001  0.25560  Biso   1.000  C
  C18      1.0000 0.99383  0.57624  0.31909  Biso   1.000  C
  N12      1.0000 0.19533  0.71316  0.26779  Biso   1.000  N
  C19      1.0000 0.08221  0.81611  0.32960  Biso   1.000  C
  H13      1.0000 0.28798  0.91657  0.37951  Biso   1.000  H
  H14      1.0000 0.35032  0.86347  0.42308  Biso   1.000  H
  H15      1.0000 0.22316  0.86296  0.42251  Biso   1.000  H
  C20      1.0000 0.30632  0.72930  0.26897  Biso   1.000  C
  N13      1.0000 0.45441  0.00705  0.25380  Biso   1.000  N
  H16      1.0000 0.47971  0.00432  0.33328  Biso   1.000  H
  H17      1.0000 0.58369  0.98861  0.30170  Biso   1.000  H
  C21      1.0000 0.65728  0.14236  0.20389  Biso   1.000  C
  O5       1.0000 0.70551  0.37496  0.21673  Biso   1.000  O
  N14      1.0000 0.98480  0.49741  0.26918  Biso   1.000  N
  H18      1.0000 0.96518  0.54093  0.34809  Biso   1.000  H
  H19      1.0000 0.94853  0.63179  0.31340  Biso   1.000  H
  C22      1.0000 0.12706  0.68906  0.21698  Biso   1.000  C
  H20      1.0000 0.05817  0.82356  0.36581  Biso   1.000  H
  H21      1.0000 0.01970  0.79748  0.30317  Biso   1.000  H
  H22      1.0000 0.12212  0.88294  0.32441  Biso   1.000  H
  O6       1.0000 0.35852  0.73179  0.22917  Biso   1.000  O
  C23      1.0000 0.34300  0.99007  0.25269  Biso   1.000  C
  C24      1.0000 0.49503  0.99211  0.19918  Biso   1.000  C
  N15      1.0000 0.54624  0.09248  0.18474  Biso   1.000  N
  H23      1.0000 0.70153  0.08639  0.20998  Biso   1.000  H
  H24      1.0000 0.68780  0.17776  0.17542  Biso   1.000  H
  C25      1.0000 0.96648  0.38846  0.26820  Biso   1.000  C
  C26      1.0000 0.98351  0.52752  0.21518  Biso   1.000  C
  N16      1.0000 0.08637  0.57465  0.19988  Biso   1.000  N
  H25      1.0000 0.16852  0.71389  0.18851  Biso   1.000  H
  H26      1.0000 0.06496  0.72926  0.22050  Biso   1.000  H
  N17      1.0000 0.30049  0.97545  0.19955  Biso   1.000  N
  O7       1.0000 0.28971  0.98697  0.29213  Biso   1.000  O
  C27      1.0000 0.38371  0.96805  0.16036  Biso   1.000  C
  C28      1.0000 0.56793  0.90304  0.19288  Biso   1.000  C
  C29      1.0000 0.49043  0.12439  0.14249  Biso   1.000  C
  N18      1.0000 0.96633  0.33886  0.21481  Biso   1.000  N
  O8       1.0000 0.95067  0.34318  0.30702  Biso   1.000  O
  C30      1.0000 0.96296  0.41440  0.17709  Biso   1.000  C
  H27      1.0000 0.92487  0.57105  0.20900  Biso   1.000  H
  C31      1.0000 0.11753  0.51690  0.15292  Biso   1.000  C
  C32      1.0000 0.18253  0.95087  0.18622  Biso   1.000  C
  N19      1.0000 0.39288  0.05858  0.12952  Biso   1.000  N
  C33      1.0000 0.36664  0.85998  0.12142  Biso   1.000  C
  H28      1.0000 0.59278  0.89470  0.15688  Biso   1.000  H
  H29      1.0000 0.52709  0.83661  0.19808  Biso   1.000  H
  H30      1.0000 0.62983  0.92156  0.21968  Biso   1.000  H
  O9       1.0000 0.52088  0.19828  0.11859  Biso   1.000  O
  C34      1.0000 0.93106  0.22504  0.19828  Biso   1.000  C
  N20      1.0000 0.05177  0.42152  0.14167  Biso   1.000  N
  H31      1.0000 0.89172  0.40409  0.15590  Biso   1.000  H
  O10      1.0000 0.19017  0.54776  0.12633  Biso   1.000  O
  N21      1.0000 0.13110  0.04135  0.17288  Biso   1.000  N
  H32      1.0000 0.16802  0.89226  0.15549  Biso   1.000  H
  H33      1.0000 0.14962  0.92638  0.21718  Biso   1.000  H
  C35      1.0000 0.31651  0.07299  0.08558  Biso   1.000  C
  H34      1.0000 0.36037  0.80209  0.14220  Biso   1.000  H
  H35      1.0000 0.42779  0.85459  0.09969  Biso   1.000  H
  H36      1.0000 0.30078  0.85540  0.09781  Biso   1.000  H
  N22      1.0000 0.01669  0.16319  0.17754  Biso   1.000  N
  H37      1.0000 0.87093  0.21551  0.17002  Biso   1.000  H
  H38      1.0000 0.90361  0.19612  0.22929  Biso   1.000  H
  C36      1.0000 0.06087  0.33931  0.09479  Biso   1.000  C
  C37      1.0000 0.06098  0.09024  0.20548  Biso   1.000  C
  C38      1.0000 0.12540  0.06893  0.11843  Biso   1.000  C
  N23      1.0000 0.22448  0.12651  0.10419  Biso   1.000  N
  H39      1.0000 0.28871  0.00286  0.06431  Biso   1.000  H
  H40      1.0000 0.35494  0.11507  0.06169  Biso   1.000  H
  C39      1.0000 0.04331  0.15412  0.12191  Biso   1.000  C
  N24      1.0000 0.10820  0.24858  0.10857  Biso   1.000  N
  H41      1.0000 0.10508  0.37148  0.06930  Biso   1.000  H
  H42      1.0000 0.98859  0.31450  0.07642  Biso   1.000  H
  O11      1.0000 0.03988  0.07249  0.25065  Biso   1.000  O
  H43      1.0000 0.09858  0.00563  0.09061  Biso   1.000  H
  C40      1.0000 0.20888  0.22569  0.09241  Biso   1.000  C
  H44      1.0000 0.97829  0.13013  0.09609  Biso   1.000  H
  O12      1.0000 0.27201  0.28492  0.07184  Biso   1.000  O
  C41      1.0000 0.56091  0.50556  0.56744  Biso   1.000  C
  N25      1.0000 0.57296  0.40226  0.57587  Biso   1.000  N
  N26      1.0000 0.46132  0.52905  0.58397  Biso   1.000  N
  O13      1.0000 0.62667  0.56619  0.54773  Biso   1.000  O
  C42      1.0000 0.66763  0.34989  0.56196  Biso   1.000  C
  C43      1.0000 0.47567  0.34953  0.59424  Biso   1.000  C
  C44      1.0000 0.41527  0.62384  0.57239  Biso   1.000  C
  C45      1.0000 0.39717  0.43565  0.59764  Biso   1.000  C
  H45      1.0000 0.64293  0.27836  0.54151  Biso   1.000  H
  H46      1.0000 0.70863  0.39034  0.53820  Biso   1.000  H
  N27      1.0000 0.74050  0.34025  0.60929  Biso   1.000  N
  H47      1.0000 0.44512  0.28432  0.56859  Biso   1.000  H
  N28      1.0000 0.48661  0.32875  0.65024  Biso   1.000  N
  H48      1.0000 0.34290  0.60164  0.55350  Biso   1.000  H
  H49      1.0000 0.46038  0.65827  0.54797  Biso   1.000  H
  N29      1.0000 0.40703  0.70125  0.62038  Biso   1.000  N
  H50      1.0000 0.33219  0.41204  0.57178  Biso   1.000  H
  N30      1.0000 0.36859  0.44653  0.65393  Biso   1.000  N
  C46      1.0000 0.73382  0.24846  0.63871  Biso   1.000  C
  C47      1.0000 0.83721  0.40737  0.62140  Biso   1.000  C
  C48      1.0000 0.41412  0.37677  0.68166  Biso   1.000  C
  C49      1.0000 0.53257  0.23390  0.66407  Biso   1.000  C
  C50      1.0000 0.31387  0.69661  0.65319  Biso   1.000  C
  C51      1.0000 0.47138  0.79942  0.63188  Biso   1.000  C
  C52      1.0000 0.28057  0.50570  0.67377  Biso   1.000  C
  C53      1.0000 0.84388  0.27252  0.67778  Biso   1.000  C
  C54      1.0000 0.71648  0.14143  0.59980  Biso   1.000  C
  N31      1.0000 0.65061  0.25255  0.67798  Biso   1.000  N
  N32      1.0000 0.89518  0.37262  0.66301  Biso   1.000  N
  O14      1.0000 0.86642  0.48277  0.59899  Biso   1.000  O
  O15      1.0000 0.39427  0.36076  0.72728  Biso   1.000  O
  H51      1.0000 0.51598  0.17563  0.63319  Biso   1.000  H
  H52      1.0000 0.49718  0.21124  0.69479  Biso   1.000  H
  H53      1.0000 0.24422  0.68708  0.63049  Biso   1.000  H
  C55      1.0000 0.33399  0.80915  0.69218  Biso   1.000  C
  N33      1.0000 0.31427  0.62059  0.69091  Biso   1.000  N
  N34      1.0000 0.43736  0.85732  0.67786  Biso   1.000  N
  O16      1.0000 0.54567  0.82898  0.60545  Biso   1.000  O
  H54      1.0000 0.25247  0.47572  0.70449  Biso   1.000  H
  H55      1.0000 0.22140  0.49535  0.64497  Biso   1.000  H
  C56      1.0000 0.91780  0.18380  0.67037  Biso   1.000  C
  N35      1.0000 0.80469  0.28677  0.73223  Biso   1.000  N
  H56      1.0000 0.71204  0.08335  0.62050  Biso   1.000  H
  H57      1.0000 0.64970  0.13644  0.57689  Biso   1.000  H
  H58      1.0000 0.77678  0.13696  0.57751  Biso   1.000  H
  C57      1.0000 0.69369  0.27062  0.73100  Biso   1.000  C
  C58      1.0000 0.00618  0.42367  0.68088  Biso   1.000  C
  H59      1.0000 0.27540  0.85295  0.68608  Biso   1.000  H
  N36      1.0000 0.33551  0.77901  0.74609  Biso   1.000  N
  C59      1.0000 0.31310  0.66990  0.74438  Biso   1.000  C
  C60      1.0000 0.47799  0.97075  0.69488  Biso   1.000  C
  H60      1.0000 0.94184  0.17635  0.63417  Biso   1.000  H
  H61      1.0000 0.98032  0.20243  0.69680  Biso   1.000  H
  H62      1.0000 0.87788  0.11689  0.67557  Biso   1.000  H
  C61      1.0000 0.87288  0.31086  0.78299  Biso   1.000  C
  O17      1.0000 0.64149  0.26812  0.77080  Biso   1.000  O
  H63      1.0000 0.03483  0.45890  0.65188  Biso   1.000  H
  H64      1.0000 0.05149  0.36813  0.68657  Biso   1.000  H
  N37      1.0000 0.01522  0.50252  0.73083  Biso   1.000  N
  C62      1.0000 0.34274  0.85756  0.79608  Biso   1.000  C
  O18      1.0000 0.29450  0.62496  0.78324  Biso   1.000  O
  H65      1.0000 0.52029  0.99551  0.66669  Biso   1.000  H
  N38      1.0000 0.54561  0.99286  0.74618  Biso   1.000  N
  H66      1.0000 0.41633  0.01130  0.69827  Biso   1.000  H
  H67      1.0000 0.83149  0.28603  0.81147  Biso   1.000  H
  H68      1.0000 0.93505  0.27066  0.77947  Biso   1.000  H
  N39      1.0000 0.91364  0.42526  0.80009  Biso   1.000  N
  C63      1.0000 0.03354  0.61145  0.73178  Biso   1.000  C
  C64      1.0000 0.01650  0.47239  0.78479  Biso   1.000  C
  H69      1.0000 0.29848  0.91352  0.78999  Biso   1.000  H
  H70      1.0000 0.31223  0.82216  0.82460  Biso   1.000  H
  N40      1.0000 0.45377  0.90743  0.81523  Biso   1.000  N
  C65      1.0000 0.50498  0.00780  0.80079  Biso   1.000  C
  C66      1.0000 0.65701  0.00985  0.74728  Biso   1.000  C
  C67      1.0000 0.88249  0.48302  0.84710  Biso   1.000  C
  N41      1.0000 0.03368  0.66105  0.78516  Biso   1.000  N
  O19      1.0000 0.04927  0.65673  0.69295  Biso   1.000  O
  C68      1.0000 0.03697  0.58551  0.82288  Biso   1.000  C
  H71      1.0000 0.07513  0.42878  0.79097  Biso   1.000  H
  C69      1.0000 0.50958  0.87552  0.85749  Biso   1.000  C
  C70      1.0000 0.61631  0.03186  0.83961  Biso   1.000  C
  C71      1.0000 0.43209  0.09687  0.80709  Biso   1.000  C
  N42      1.0000 0.69954  0.02447  0.80046  Biso   1.000  N
  O20      1.0000 0.71031  0.01294  0.70784  Biso   1.000  O
  N43      1.0000 0.94816  0.57839  0.85831  Biso   1.000  N
  O21      1.0000 0.80984  0.45215  0.87365  Biso   1.000  O
  C72      1.0000 0.06886  0.77479  0.80169  Biso   1.000  C
  H72      1.0000 0.10829  0.59582  0.84407  Biso   1.000  H
  N44      1.0000 0.60714  0.94134  0.87046  Biso   1.000  N
  O22      1.0000 0.47913  0.80164  0.88138  Biso   1.000  O
  C73      1.0000 0.63338  0.13995  0.87860  Biso   1.000  C
  H73      1.0000 0.40723  0.10521  0.84309  Biso   1.000  H
  H74      1.0000 0.47292  0.16331  0.80189  Biso   1.000  H
  H75      1.0000 0.37018  0.07835  0.78029  Biso   1.000  H
  C74      1.0000 0.81749  0.04906  0.81380  Biso   1.000  C
  C75      1.0000 0.93914  0.66061  0.90519  Biso   1.000  C
  N45      1.0000 0.98332  0.83672  0.82243  Biso   1.000  N
  H76      1.0000 0.12909  0.78442  0.83000  Biso   1.000  H
  H77      1.0000 0.09640  0.80380  0.77068  Biso   1.000  H
  C76      1.0000 0.68350  0.92692  0.91439  Biso   1.000  C
  H78      1.0000 0.63956  0.19783  0.85777  Biso   1.000  H
  H79      1.0000 0.57222  0.14533  0.90028  Biso   1.000  H
  H80      1.0000 0.69924  0.14453  0.90220  Biso   1.000  H
  N46      1.0000 0.86892  0.95850  0.82713  Biso   1.000  N
  H81      1.0000 0.83199  0.10765  0.84448  Biso   1.000  H
  H82      1.0000 0.85039  0.07353  0.78279  Biso   1.000  H
  H83      1.0000 0.89493  0.62843  0.93067  Biso   1.000  H
  N47      1.0000 0.89181  0.75134  0.89140  Biso   1.000  N
  H84      1.0000 0.01143  0.68543  0.92360  Biso   1.000  H
  C77      1.0000 0.95670  0.84579  0.87806  Biso   1.000  C
  C78      1.0000 0.93903  0.90959  0.79449  Biso   1.000  C
  H85      1.0000 0.71130  0.99697  0.93566  Biso   1.000  H
  H86      1.0000 0.64508  0.88484  0.93828  Biso   1.000  H
  N48      1.0000 0.77553  0.87341  0.89578  Biso   1.000  N
  C79      1.0000 0.87462  0.93099  0.88154  Biso   1.000  C
  C80      1.0000 0.79113  0.77422  0.90756  Biso   1.000  C
  H87      1.0000 0.02172  0.86979  0.90388  Biso   1.000  H
  O23      1.0000 0.96013  0.92742  0.74933  Biso   1.000  O
  H88      1.0000 0.90144  0.99430  0.90940  Biso   1.000  H
  O24      1.0000 0.72801  0.71500  0.92818  Biso   1.000  O
  Ne1      1.0000 0.32461  0.35914  0.26136  Biso   1.000  Ne
  He1      1.0000 0.19887  0.26150  0.35102  Biso   1.000  He
  He2      1.0000 0.45312  0.48474  0.15721  Biso   1.000  He
  Ar1      1.0000 0.32284  0.35758  0.26289  Biso   1.000  Ar
  Ne2      1.0000 0.67539  0.64077  0.73862  Biso   1.000  Ne
  He3      1.0000 0.54774  0.55098  0.82778  Biso   1.000  He
  He4      1.0000 0.81134  0.74601  0.64166  Biso   1.000  He
  Ar2      1.0000 0.67719  0.64236  0.73708  Biso   1.000  Ar
