data_image0
_cell_length_a       15.57
_cell_length_b       25.726
_cell_length_c       16.058
_cell_angle_alpha    90
_cell_angle_beta     110.89
_cell_angle_gamma    90

_symmetry_space_group_name_H-M    "P 1"
_symmetry_int_tables_number       1

loop_
  _symmetry_equiv_pos_as_xyz
  'x, y, z'

loop_
  _atom_site_label
  _atom_site_occupancy
  _atom_site_fract_x
  _atom_site_fract_y
  _atom_site_fract_z
  _atom_site_thermal_displace_type
  _atom_site_B_iso_or_equiv
  _atom_site_type_symbol
  N1       1.0000 0.47868  0.53475  0.39400  Biso   1.000  N
  C1       1.0000 0.38538  0.52208  0.39074  Biso   1.000  C
  C2       1.0000 0.52262  0.49911  0.37361  Biso   1.000  C
  C3       1.0000 0.31644  0.55380  0.32081  Biso   1.000  C
  H1       1.0000 0.38036  0.52915  0.44939  Biso   1.000  H
  H2       1.0000 0.37297  0.48465  0.37727  Biso   1.000  H
  H3       1.0000 0.49333  0.46630  0.35734  Biso   1.000  H
  C4       1.0000 0.61777  0.50486  0.37334  Biso   1.000  C
  N2       1.0000 0.31685  0.53176  0.22763  Biso   1.000  N
  N3       1.0000 0.31922  0.57607  0.25329  Biso   1.000  N
  H4       1.0000 0.33377  0.59100  0.32761  Biso   1.000  H
  H5       1.0000 0.25471  0.54999  0.32481  Biso   1.000  H
  H6       1.0000 0.26188  0.53090  0.29802  Biso   1.000  H
  H7       1.0000 0.29919  0.58155  0.35461  Biso   1.000  H
  C5       1.0000 0.66748  0.55018  0.40180  Biso   1.000  C
  C6       1.0000 0.65875  0.46373  0.34768  Biso   1.000  C
  H8       1.0000 0.34211  0.50198  0.22210  Biso   1.000  H
  C7       1.0000 0.27429  0.56367  0.15871  Biso   1.000  C
  H9       1.0000 0.35405  0.60410  0.26416  Biso   1.000  H
  C8       1.0000 0.75686  0.55360  0.40453  Biso   1.000  C
  H10      1.0000 0.63995  0.57903  0.41966  Biso   1.000  H
  C9       1.0000 0.74885  0.46723  0.34974  Biso   1.000  C
  H11      1.0000 0.62522  0.43244  0.32828  Biso   1.000  H
  C10      1.0000 0.30035  0.54968  0.08652  Biso   1.000  C
  H12      1.0000 0.29201  0.60017  0.17597  Biso   1.000  H
  H13      1.0000 0.20681  0.56064  0.14164  Biso   1.000  H
  H14      1.0000 0.23150  0.53541  0.15971  Biso   1.000  H
  H15      1.0000 0.23461  0.59438  0.13551  Biso   1.000  H
  C11      1.0000 0.79856  0.51197  0.37874  Biso   1.000  C
  H16      1.0000 0.79032  0.58489  0.42426  Biso   1.000  H
  H17      1.0000 0.77598  0.43854  0.33095  Biso   1.000  H
  N4       1.0000 0.39852  0.55660  0.10898  Biso   1.000  N
  H18      1.0000 0.26659  0.57145  0.03419  Biso   1.000  H
  H19      1.0000 0.28383  0.51291  0.07059  Biso   1.000  H
  C12      1.0000 0.89617  0.51586  0.38620  Biso   1.000  C
  C13      1.0000 0.44434  0.51804  0.10258  Biso   1.000  C
  N5       1.0000 0.93333  0.47609  0.35574  Biso   1.000  N
  N6       1.0000 0.94167  0.55842  0.42593  Biso   1.000  N
  C14      1.0000 0.54412  0.52130  0.12171  Biso   1.000  C
  H20      1.0000 0.41410  0.48562  0.08479  Biso   1.000  H
  C15      1.0000 0.02255  0.48189  0.36834  Biso   1.000  C
  C16      1.0000 0.02955  0.56087  0.43313  Biso   1.000  C
  C17      1.0000 0.59109  0.47839  0.10938  Biso   1.000  C
  C18      1.0000 0.59265  0.56701  0.15011  Biso   1.000  C
  C19      1.0000 0.07303  0.43932  0.34408  Biso   1.000  C
  N7       1.0000 0.07322  0.52394  0.40500  Biso   1.000  N
  C20      1.0000 0.08437  0.60612  0.47759  Biso   1.000  C
  H21      1.0000 0.55952  0.44628  0.09252  Biso   1.000  H
  C21      1.0000 0.68304  0.48107  0.12118  Biso   1.000  C
  C22      1.0000 0.68396  0.57012  0.16211  Biso   1.000  C
  H22      1.0000 0.56204  0.59663  0.16137  Biso   1.000  H
  C23      1.0000 0.02973  0.39404  0.30228  Biso   1.000  C
  C24      1.0000 0.16789  0.44294  0.36781  Biso   1.000  C
  C25      1.0000 0.17317  0.61304  0.47892  Biso   1.000  C
  C26      1.0000 0.04834  0.64246  0.52038  Biso   1.000  C
  H23      1.0000 0.71395  0.45102  0.11198  Biso   1.000  H
  C27      1.0000 0.73032  0.52717  0.14638  Biso   1.000  C
  H24      1.0000 0.71602  0.60188  0.18137  Biso   1.000  H
  H25      1.0000 0.96501  0.39073  0.28542  Biso   1.000  H
  C28      1.0000 0.07997  0.35377  0.28522  Biso   1.000  C
  H26      1.0000 0.19893  0.47357  0.39580  Biso   1.000  H
  C29      1.0000 0.21731  0.40228  0.35094  Biso   1.000  C
  H27      1.0000 0.19838  0.58878  0.44933  Biso   1.000  H
  C30      1.0000 0.22497  0.65459  0.52251  Biso   1.000  C
  H28      1.0000 0.98753  0.63834  0.51971  Biso   1.000  H
  C31      1.0000 0.10029  0.68437  0.56384  Biso   1.000  C
  C32      1.0000 0.82783  0.53110  0.15531  Biso   1.000  C
  C33      1.0000 0.17507  0.35734  0.31048  Biso   1.000  C
  H29      1.0000 0.04916  0.32337  0.25576  Biso   1.000  H
  H30      1.0000 0.28201  0.40550  0.36761  Biso   1.000  H
  C34      1.0000 0.18959  0.69074  0.56584  Biso   1.000  C
  H31      1.0000 0.28580  0.65871  0.52305  Biso   1.000  H
  H32      1.0000 0.07477  0.70901  0.59244  Biso   1.000  H
  N8       1.0000 0.87241  0.57498  0.19044  Biso   1.000  N
  N9       1.0000 0.86435  0.49172  0.12538  Biso   1.000  N
  C35      1.0000 0.23404  0.31501  0.29968  Biso   1.000  C
  C36      1.0000 0.24398  0.73649  0.60843  Biso   1.000  C
  C37      1.0000 0.96036  0.57735  0.19610  Biso   1.000  C
  C38      1.0000 0.95191  0.49775  0.13311  Biso   1.000  C
  N10      1.0000 0.20615  0.27120  0.26769  Biso   1.000  N
  H33      1.0000 0.29825  0.32150  0.31868  Biso   1.000  H
  H34      1.0000 0.21431  0.76479  0.62503  Biso   1.000  H
  N11      1.0000 0.32871  0.73914  0.62350  Biso   1.000  N
  N12      1.0000 0.00328  0.53957  0.16891  Biso   1.000  N
  C39      1.0000 0.01112  0.62520  0.23230  Biso   1.000  C
  C40      1.0000 0.99394  0.45666  0.09652  Biso   1.000  C
  C41      1.0000 0.27623  0.23342  0.26649  Biso   1.000  C
  C42      1.0000 0.37318  0.78924  0.65203  Biso   1.000  C
  C43      1.0000 0.97196  0.66361  0.26729  Biso   1.000  C
  C44      1.0000 0.09842  0.63376  0.22990  Biso   1.000  C
  C45      1.0000 0.94602  0.41145  0.06052  Biso   1.000  C
  C46      1.0000 0.08124  0.46307  0.09498  Biso   1.000  C
  H35      1.0000 0.28606  0.20808  0.31542  Biso   1.000  H
  H36      1.0000 0.33511  0.25173  0.27675  Biso   1.000  H
  C47      1.0000 0.24786  0.20497  0.17870  Biso   1.000  C
  C48      1.0000 0.40089  0.80980  0.57684  Biso   1.000  C
  H37      1.0000 0.42808  0.78508  0.70682  Biso   1.000  H
  H38      1.0000 0.33031  0.81369  0.66469  Biso   1.000  H
  H39      1.0000 0.91292  0.65817  0.27056  Biso   1.000  H
  C49      1.0000 0.01723  0.70959  0.29728  Biso   1.000  C
  H40      1.0000 0.12739  0.60736  0.20790  Biso   1.000  H
  C50      1.0000 0.14332  0.67993  0.25909  Biso   1.000  C
  H41      1.0000 0.88558  0.40648  0.06052  Biso   1.000  H
  C51      1.0000 0.98605  0.37375  0.02493  Biso   1.000  C
  H42      1.0000 0.11516  0.49355  0.11998  Biso   1.000  H
  C52      1.0000 0.11994  0.42587  0.05772  Biso   1.000  C
  N13      1.0000 0.23125  0.24158  0.10612  Biso   1.000  N
  H43      1.0000 0.29691  0.18040  0.17917  Biso   1.000  H
  H44      1.0000 0.19123  0.18475  0.17017  Biso   1.000  H
  N14      1.0000 0.32006  0.81528  0.49552  Biso   1.000  N
  H45      1.0000 0.43131  0.84397  0.59370  Biso   1.000  H
  H46      1.0000 0.44517  0.78563  0.56591  Biso   1.000  H
  H47      1.0000 0.98958  0.73529  0.32201  Biso   1.000  H
  C53      1.0000 0.10292  0.71884  0.29209  Biso   1.000  C
  H48      1.0000 0.20276  0.68526  0.25656  Biso   1.000  H
  H49      1.0000 0.95316  0.34277  0.00100  Biso   1.000  H
  C54      1.0000 0.07400  0.38105  0.02380  Biso   1.000  C
  H50      1.0000 0.17938  0.43155  0.05552  Biso   1.000  H
  C55      1.0000 0.18086  0.21846  0.01920  Biso   1.000  C
  H51      1.0000 0.19753  0.26600  0.11798  Biso   1.000  H
  C56      1.0000 0.34256  0.83383  0.42100  Biso   1.000  C
  H52      1.0000 0.29206  0.78419  0.48699  Biso   1.000  H
  C57      1.0000 0.14703  0.77008  0.31808  Biso   1.000  C
  C58      1.0000 0.12074  0.34063  0.98987  Biso   1.000  C
  C59      1.0000 0.15090  0.25950  0.94788  Biso   1.000  C
  H53      1.0000 0.12622  0.19984  0.02186  Biso   1.000  H
  H54      1.0000 0.22058  0.19284  0.00427  Biso   1.000  H
  C60      1.0000 0.25715  0.83460  0.33721  Biso   1.000  C
  H55      1.0000 0.38942  0.81081  0.41187  Biso   1.000  H
  H56      1.0000 0.36865  0.86928  0.43380  Biso   1.000  H
  N15      1.0000 0.22281  0.78193  0.31228  Biso   1.000  N
  H57      1.0000 0.11636  0.79542  0.34034  Biso   1.000  H
  H58      1.0000 0.17637  0.34957  0.98167  Biso   1.000  H
  N16      1.0000 0.09111  0.29581  0.97147  Biso   1.000  N
  H59      1.0000 0.20510  0.27801  0.94401  Biso   1.000  H
  H60      1.0000 0.11722  0.24333  0.88928  Biso   1.000  H
  H61      1.0000 0.20895  0.85590  0.34761  Biso   1.000  H
  H62      1.0000 0.27189  0.85066  0.28789  Biso   1.000  H
  N17      1.0000 0.52146  0.46521  0.60603  Biso   1.000  N
  C61      1.0000 0.47745  0.50089  0.62643  Biso   1.000  C
  C62      1.0000 0.61476  0.47792  0.60930  Biso   1.000  C
  C63      1.0000 0.38236  0.49514  0.62670  Biso   1.000  C
  H63      1.0000 0.50681  0.53366  0.64269  Biso   1.000  H
  H64      1.0000 0.61975  0.47085  0.55058  Biso   1.000  H
  H65      1.0000 0.62716  0.51532  0.62276  Biso   1.000  H
  C64      1.0000 0.68370  0.44620  0.67922  Biso   1.000  C
  C65      1.0000 0.33265  0.44982  0.59824  Biso   1.000  C
  C66      1.0000 0.34136  0.53623  0.65229  Biso   1.000  C
  N18      1.0000 0.68328  0.46820  0.77241  Biso   1.000  N
  H66      1.0000 0.66636  0.40900  0.67242  Biso   1.000  H
  H67      1.0000 0.74542  0.45001  0.67522  Biso   1.000  H
  H68      1.0000 0.73826  0.46910  0.70202  Biso   1.000  H
  H69      1.0000 0.70092  0.41845  0.64536  Biso   1.000  H
  N19      1.0000 0.68091  0.42389  0.74674  Biso   1.000  N
  C67      1.0000 0.24327  0.44636  0.59550  Biso   1.000  C
  H70      1.0000 0.36019  0.42097  0.58037  Biso   1.000  H
  C68      1.0000 0.25128  0.53277  0.65029  Biso   1.000  C
  H71      1.0000 0.37491  0.56756  0.67176  Biso   1.000  H
  H72      1.0000 0.65802  0.49798  0.77794  Biso   1.000  H
  C69      1.0000 0.72578  0.43629  0.84133  Biso   1.000  C
  H73      1.0000 0.64609  0.39586  0.73588  Biso   1.000  H
  C70      1.0000 0.20157  0.48803  0.62130  Biso   1.000  C
  H74      1.0000 0.20981  0.41511  0.57577  Biso   1.000  H
  H75      1.0000 0.22416  0.56142  0.66909  Biso   1.000  H
  C71      1.0000 0.69979  0.45028  0.91352  Biso   1.000  C
  H76      1.0000 0.70806  0.39979  0.82407  Biso   1.000  H
  H77      1.0000 0.79332  0.43932  0.85839  Biso   1.000  H
  H78      1.0000 0.76863  0.46455  0.84033  Biso   1.000  H
  H79      1.0000 0.76546  0.40562  0.86453  Biso   1.000  H
  C72      1.0000 0.10396  0.48410  0.61383  Biso   1.000  C
  N20      1.0000 0.60161  0.44340  0.89105  Biso   1.000  N
  H80      1.0000 0.73354  0.42855  0.96584  Biso   1.000  H
  H81      1.0000 0.71631  0.48709  0.92945  Biso   1.000  H
  N21      1.0000 0.06680  0.52391  0.64429  Biso   1.000  N
  N22      1.0000 0.05846  0.44154  0.57411  Biso   1.000  N
  C73      1.0000 0.55579  0.48192  0.89745  Biso   1.000  C
  C74      1.0000 0.97752  0.51808  0.63170  Biso   1.000  C
  C75      1.0000 0.97052  0.43913  0.56691  Biso   1.000  C
  C76      1.0000 0.45602  0.47870  0.87832  Biso   1.000  C
  H82      1.0000 0.58601  0.51434  0.91518  Biso   1.000  H
  C77      1.0000 0.92708  0.56068  0.65589  Biso   1.000  C
  N23      1.0000 0.92692  0.47606  0.59504  Biso   1.000  N
  C78      1.0000 0.91574  0.39384  0.52238  Biso   1.000  C
  C79      1.0000 0.40898  0.52161  0.89065  Biso   1.000  C
  C80      1.0000 0.40749  0.43299  0.84993  Biso   1.000  C
  C81      1.0000 0.97038  0.60596  0.69769  Biso   1.000  C
  C82      1.0000 0.83225  0.55706  0.63223  Biso   1.000  C
  C83      1.0000 0.82696  0.38692  0.52111  Biso   1.000  C
  C84      1.0000 0.95171  0.35754  0.47959  Biso   1.000  C
  H83      1.0000 0.44061  0.55372  0.90752  Biso   1.000  H
  C85      1.0000 0.31710  0.51889  0.87886  Biso   1.000  C
  C86      1.0000 0.31618  0.42988  0.83793  Biso   1.000  C
  H84      1.0000 0.43809  0.40333  0.83866  Biso   1.000  H
  H85      1.0000 0.03512  0.60923  0.71462  Biso   1.000  H
  C87      1.0000 0.92016  0.64619  0.71482  Biso   1.000  C
  H86      1.0000 0.80121  0.52639  0.60423  Biso   1.000  H
  C88      1.0000 0.78283  0.59768  0.64909  Biso   1.000  C
  H87      1.0000 0.80175  0.41122  0.55071  Biso   1.000  H
  C89      1.0000 0.77516  0.34537  0.47752  Biso   1.000  C
  H88      1.0000 0.01258  0.36162  0.48025  Biso   1.000  H
  C90      1.0000 0.89985  0.31563  0.43620  Biso   1.000  C
  H89      1.0000 0.28618  0.54894  0.88805  Biso   1.000  H
  C91      1.0000 0.26979  0.47283  0.85359  Biso   1.000  C
  H90      1.0000 0.28411  0.39808  0.81867  Biso   1.000  H
  C92      1.0000 0.82504  0.64262  0.68949  Biso   1.000  C
  H91      1.0000 0.95095  0.67659  0.74421  Biso   1.000  H
  H92      1.0000 0.71813  0.59450  0.63243  Biso   1.000  H
  C93      1.0000 0.81054  0.30926  0.43420  Biso   1.000  C
  H93      1.0000 0.71433  0.34125  0.47699  Biso   1.000  H
  H94      1.0000 0.92536  0.29095  0.40760  Biso   1.000  H
  C94      1.0000 0.17224  0.46890  0.84473  Biso   1.000  C
  C95      1.0000 0.76610  0.68495  0.70035  Biso   1.000  C
  C96      1.0000 0.75615  0.26351  0.39160  Biso   1.000  C
  N24      1.0000 0.12772  0.42498  0.80960  Biso   1.000  N
  N25      1.0000 0.13579  0.50828  0.87466  Biso   1.000  N
  N26      1.0000 0.79398  0.72880  0.73235  Biso   1.000  N
  H95      1.0000 0.70189  0.67846  0.68136  Biso   1.000  H
  H96      1.0000 0.78582  0.23521  0.37501  Biso   1.000  H
  N27      1.0000 0.67142  0.26083  0.37654  Biso   1.000  N
  C97      1.0000 0.03977  0.42265  0.80394  Biso   1.000  C
  C98      1.0000 0.04823  0.50222  0.86692  Biso   1.000  C
  C99      1.0000 0.72390  0.76654  0.73355  Biso   1.000  C
  C100     1.0000 0.62695  0.21072  0.34801  Biso   1.000  C
  N28      1.0000 0.99685  0.46043  0.83113  Biso   1.000  N
  C101     1.0000 0.98902  0.37480  0.76774  Biso   1.000  C
  C102     1.0000 0.00619  0.54330  0.90352  Biso   1.000  C
  H97      1.0000 0.71407  0.79192  0.68462  Biso   1.000  H
  H98      1.0000 0.66500  0.74827  0.72321  Biso   1.000  H
  C103     1.0000 0.75227  0.79499  0.82133  Biso   1.000  C
  C104     1.0000 0.59924  0.19016  0.42320  Biso   1.000  C
  H99      1.0000 0.57206  0.21492  0.29322  Biso   1.000  H
  H100     1.0000 0.66982  0.18627  0.33535  Biso   1.000  H
  C105     1.0000 0.02817  0.33635  0.73275  Biso   1.000  C
  C106     1.0000 0.90165  0.36621  0.77014  Biso   1.000  C
  C107     1.0000 0.05411  0.58855  0.93951  Biso   1.000  C
  C108     1.0000 0.91890  0.53689  0.90505  Biso   1.000  C
  N29      1.0000 0.76888  0.75842  0.89392  Biso   1.000  N
  H101     1.0000 0.70322  0.81960  0.82087  Biso   1.000  H
  H102     1.0000 0.80891  0.81525  0.82986  Biso   1.000  H
  N30      1.0000 0.68008  0.18468  0.50452  Biso   1.000  N
  H103     1.0000 0.56876  0.15599  0.40633  Biso   1.000  H
  H104     1.0000 0.55490  0.21437  0.43413  Biso   1.000  H
  C109     1.0000 0.98291  0.29041  0.70275  Biso   1.000  C
  H105     1.0000 0.08721  0.34183  0.72948  Biso   1.000  H
  C110     1.0000 0.85675  0.32003  0.74095  Biso   1.000  C
  H106     1.0000 0.87275  0.39260  0.79214  Biso   1.000  H
  C111     1.0000 0.01409  0.62625  0.97511  Biso   1.000  C
  H107     1.0000 0.11453  0.59352  0.93945  Biso   1.000  H
  C112     1.0000 0.88019  0.57409  0.94231  Biso   1.000  C
  H108     1.0000 0.88498  0.50645  0.88006  Biso   1.000  H
  C113     1.0000 0.81928  0.78154  0.98084  Biso   1.000  C
  H109     1.0000 0.80260  0.73400  0.88206  Biso   1.000  H
  C114     1.0000 0.65758  0.16617  0.57904  Biso   1.000  C
  H110     1.0000 0.70805  0.21581  0.51298  Biso   1.000  H
  C115     1.0000 0.89715  0.28116  0.70795  Biso   1.000  C
  H111     1.0000 0.01055  0.26467  0.67802  Biso   1.000  H
  H112     1.0000 0.79737  0.31474  0.74348  Biso   1.000  H
  C116     1.0000 0.92607  0.61891  0.97624  Biso   1.000  C
  H113     1.0000 0.04691  0.65723  0.99904  Biso   1.000  H
  H114     1.0000 0.82076  0.56845  0.94451  Biso   1.000  H
  H115     1.0000 0.87392  0.80012  0.97817  Biso   1.000  H
  H116     1.0000 0.77955  0.80712  0.99577  Biso   1.000  H
  C117     1.0000 0.84923  0.74050  0.05216  Biso   1.000  C
  H117     1.0000 0.61071  0.18915  0.58817  Biso   1.000  H
  H118     1.0000 0.63149  0.13068  0.56624  Biso   1.000  H
  C118     1.0000 0.74298  0.16536  0.66282  Biso   1.000  C
  C119     1.0000 0.85308  0.22988  0.68189  Biso   1.000  C
  C120     1.0000 0.87939  0.65933  0.01017  Biso   1.000  C
  N31      1.0000 0.90902  0.70419  0.02856  Biso   1.000  N
  H119     1.0000 0.79503  0.72199  0.05603  Biso   1.000  H
  H120     1.0000 0.88292  0.75667  0.11075  Biso   1.000  H
  N32      1.0000 0.77730  0.21807  0.68769  Biso   1.000  N
  H121     1.0000 0.79118  0.14406  0.65243  Biso   1.000  H
  H122     1.0000 0.72824  0.14930  0.71215  Biso   1.000  H
  H123     1.0000 0.88377  0.20454  0.65969  Biso   1.000  H
  H124     1.0000 0.82377  0.65039  0.01837  Biso   1.000  H
  C121     1.0000 0.01731  0.79041  0.79734  Biso   1.000  C
  C122     1.0000 0.97198  0.83635  0.76734  Biso   1.000  C
  H125     1.0000 0.98966  0.76467  0.82207  Biso   1.000  H
  C123     1.0000 0.10300  0.78116  0.79214  Biso   1.000  C
  C124     1.0000 0.01120  0.87480  0.73235  Biso   1.000  C
  H126     1.0000 0.91298  0.84179  0.77054  Biso   1.000  H
  C125     1.0000 0.14340  0.82003  0.75914  Biso   1.000  C
  C126     1.0000 0.14711  0.72988  0.81813  Biso   1.000  C
  C127     1.0000 0.96042  0.92261  0.69609  Biso   1.000  C
  C128     1.0000 0.09850  0.86621  0.72995  Biso   1.000  C
  H127     1.0000 0.20284  0.81474  0.75661  Biso   1.000  H
  N33      1.0000 0.22289  0.71807  0.81233  Biso   1.000  N
  H128     1.0000 0.11642  0.70454  0.84033  Biso   1.000  H
  N34      1.0000 0.87246  0.92498  0.69042  Biso   1.000  N
  N35      1.0000 0.00327  0.96039  0.66889  Biso   1.000  N
  H129     1.0000 0.12744  0.89260  0.70788  Biso   1.000  H
  C129     1.0000 0.25721  0.66536  0.83720  Biso   1.000  C
  C130     1.0000 0.82788  0.96890  0.65529  Biso   1.000  C
  C131     1.0000 0.95196  0.00225  0.63310  Biso   1.000  C
  C132     1.0000 0.34263  0.66617  0.92105  Biso   1.000  C
  H130     1.0000 0.20903  0.64406  0.84766  Biso   1.000  H
  H131     1.0000 0.27195  0.64930  0.78787  Biso   1.000  H
  C133     1.0000 0.73034  0.97283  0.64643  Biso   1.000  C
  N36      1.0000 0.86443  0.00832  0.62543  Biso   1.000  N
  C134     1.0000 0.99399  0.04334  0.59650  Biso   1.000  C
  N37      1.0000 0.32011  0.68468  0.99550  Biso   1.000  N
  H132     1.0000 0.38950  0.68915  0.91192  Biso   1.000  H
  H133     1.0000 0.36864  0.63068  0.93378  Biso   1.000  H
  C135     1.0000 0.68395  0.92984  0.66209  Biso   1.000  C
  C136     1.0000 0.68311  0.01893  0.62123  Biso   1.000  C
  C137     1.0000 0.94608  0.08855  0.56051  Biso   1.000  C
  C138     1.0000 0.08132  0.03693  0.59504  Biso   1.000  C
  H134     1.0000 0.29214  0.71577  0.98704  Biso   1.000  H
  C139     1.0000 0.40080  0.69016  0.07676  Biso   1.000  C
  C140     1.0000 0.59264  0.93295  0.65009  Biso   1.000  C
  H135     1.0000 0.71608  0.89808  0.68136  Biso   1.000  H
  C141     1.0000 0.59117  0.02165  0.60943  Biso   1.000  C
  H136     1.0000 0.71400  0.04898  0.61197  Biso   1.000  H
  H137     1.0000 0.88566  0.09356  0.56057  Biso   1.000  H
  C142     1.0000 0.98610  0.12629  0.52491  Biso   1.000  C
  H138     1.0000 0.11524  0.00645  0.62003  Biso   1.000  H
  C143     1.0000 0.12000  0.07413  0.55771  Biso   1.000  C
  H139     1.0000 0.43123  0.65599  0.09369  Biso   1.000  H
  H140     1.0000 0.44507  0.71437  0.06583  Biso   1.000  H
  C144     1.0000 0.37308  0.71072  0.15194  Biso   1.000  C
  C145     1.0000 0.54411  0.97866  0.62170  Biso   1.000  C
  H141     1.0000 0.56210  0.90333  0.66136  Biso   1.000  H
  H142     1.0000 0.55951  0.05372  0.59250  Biso   1.000  H
  H143     1.0000 0.95324  0.15723  0.50105  Biso   1.000  H
  C146     1.0000 0.07406  0.11895  0.52378  Biso   1.000  C
  H144     1.0000 0.17943  0.06849  0.55551  Biso   1.000  H
  N38      1.0000 0.32858  0.76083  0.12348  Biso   1.000  N
  H145     1.0000 0.42800  0.71492  0.20680  Biso   1.000  H
  H146     1.0000 0.33021  0.68627  0.16461  Biso   1.000  H
  C147     1.0000 0.44436  0.98192  0.60263  Biso   1.000  C
  C148     1.0000 0.12065  0.15937  0.48979  Biso   1.000  C
  C149     1.0000 0.24389  0.76351  0.10835  Biso   1.000  C
  N39      1.0000 0.39860  0.94340  0.60903  Biso   1.000  N
  H147     1.0000 0.41418  0.01438  0.58484  Biso   1.000  H
  H148     1.0000 0.17633  0.15043  0.48159  Biso   1.000  H
  N40      1.0000 0.09108  0.20419  0.47139  Biso   1.000  N
  C150     1.0000 0.18949  0.80926  0.06576  Biso   1.000  C
  H149     1.0000 0.21418  0.73521  0.12502  Biso   1.000  H
  C151     1.0000 0.30034  0.95028  0.58650  Biso   1.000  C
  C152     1.0000 0.15087  0.24053  0.44779  Biso   1.000  C
  C153     1.0000 0.22488  0.84537  0.02243  Biso   1.000  C
  C154     1.0000 0.10019  0.81563  0.06376  Biso   1.000  C
  H150     1.0000 0.26664  0.92855  0.53418  Biso   1.000  H
  H151     1.0000 0.28382  0.98706  0.57057  Biso   1.000  H
  C155     1.0000 0.27435  0.93629  0.65869  Biso   1.000  C
  C156     1.0000 0.18085  0.28158  0.51918  Biso   1.000  C
  H152     1.0000 0.20500  0.22203  0.44393  Biso   1.000  H
  H153     1.0000 0.11721  0.25667  0.38927  Biso   1.000  H
  C157     1.0000 0.17322  0.88692  0.97891  Biso   1.000  C
  H154     1.0000 0.28570  0.84125  0.02297  Biso   1.000  H
  C158     1.0000 0.04827  0.85750  0.02037  Biso   1.000  C
  H155     1.0000 0.07464  0.79095  0.09242  Biso   1.000  H
  N41      1.0000 0.31691  0.96820  0.72761  Biso   1.000  N
  H156     1.0000 0.29209  0.89979  0.67602  Biso   1.000  H
  H157     1.0000 0.20686  0.93932  0.64163  Biso   1.000  H
  H158     1.0000 0.23156  0.96455  0.65969  Biso   1.000  H
  H159     1.0000 0.23467  0.90558  0.63550  Biso   1.000  H
  N42      1.0000 0.31930  0.92389  0.75334  Biso   1.000  N
  N43      1.0000 0.23131  0.25842  0.60610  Biso   1.000  N
  H160     1.0000 0.12627  0.30016  0.52185  Biso   1.000  H
  H161     1.0000 0.22063  0.30716  0.50425  Biso   1.000  H
  C159     1.0000 0.08445  0.89384  0.97764  Biso   1.000  C
  H162     1.0000 0.19844  0.91118  0.94931  Biso   1.000  H
  H163     1.0000 0.98752  0.86162  0.01970  Biso   1.000  H
  H164     1.0000 0.34217  0.99798  0.72208  Biso   1.000  H
  C160     1.0000 0.31649  0.94616  0.82080  Biso   1.000  C
  H165     1.0000 0.33377  0.90896  0.82760  Biso   1.000  H
  H166     1.0000 0.35410  0.89586  0.76414  Biso   1.000  H
  C161     1.0000 0.24792  0.29503  0.67869  Biso   1.000  C
  H167     1.0000 0.19761  0.23400  0.61803  Biso   1.000  H
  C162     1.0000 0.02960  0.93909  0.93311  Biso   1.000  C
  C163     1.0000 0.38537  0.97792  0.89072  Biso   1.000  C
  H168     1.0000 0.25477  0.95001  0.82480  Biso   1.000  H
  H169     1.0000 0.26196  0.96910  0.79807  Biso   1.000  H
  H170     1.0000 0.29927  0.91841  0.85466  Biso   1.000  H
  C164     1.0000 0.27631  0.26654  0.76654  Biso   1.000  C
  H171     1.0000 0.29697  0.31960  0.67916  Biso   1.000  H
  H172     1.0000 0.19128  0.31528  0.67016  Biso   1.000  H
  N44      1.0000 0.94166  0.94154  0.92592  Biso   1.000  N
  N45      1.0000 0.07327  0.97602  0.90499  Biso   1.000  N
  N46      1.0000 0.47869  0.96521  0.89405  Biso   1.000  N
  H173     1.0000 0.38037  0.97085  0.94944  Biso   1.000  H
  H174     1.0000 0.37303  0.01535  0.87726  Biso   1.000  H
  N47      1.0000 0.20623  0.22880  0.76774  Biso   1.000  N
  H175     1.0000 0.28612  0.29196  0.81540  Biso   1.000  H
  H176     1.0000 0.33513  0.24827  0.77681  Biso   1.000  H
  C165     1.0000 0.89625  0.98410  0.88625  Biso   1.000  C
  C166     1.0000 0.02260  0.01811  0.86832  Biso   1.000  C
  C167     1.0000 0.52268  0.00089  0.87359  Biso   1.000  C
  C168     1.0000 0.23412  0.18499  0.79974  Biso   1.000  C
  C169     1.0000 0.79862  0.98803  0.87872  Biso   1.000  C
  N48      1.0000 0.93338  0.02394  0.85573  Biso   1.000  N
  C170     1.0000 0.07311  0.06072  0.84413  Biso   1.000  C
  C171     1.0000 0.61783  0.99514  0.87332  Biso   1.000  C
  H177     1.0000 0.49338  0.03370  0.85733  Biso   1.000  H
  C172     1.0000 0.17508  0.14266  0.81053  Biso   1.000  C
  H178     1.0000 0.29830  0.17850  0.81867  Biso   1.000  H
  C173     1.0000 0.75691  0.94636  0.90452  Biso   1.000  C
  C174     1.0000 0.74890  0.03281  0.84973  Biso   1.000  C
  C175     1.0000 0.02981  0.10600  0.80234  Biso   1.000  C
  C176     1.0000 0.16788  0.05710  0.86779  Biso   1.000  C
  C177     1.0000 0.66750  0.94978  0.90185  Biso   1.000  C
  C178     1.0000 0.65883  0.03627  0.84773  Biso   1.000  C
  C179     1.0000 0.08002  0.14623  0.78520  Biso   1.000  C
  C180     1.0000 0.21730  0.09772  0.85093  Biso   1.000  C
  H179     1.0000 0.79040  0.91507  0.92432  Biso   1.000  H
  H180     1.0000 0.77597  0.06146  0.83093  Biso   1.000  H
  H181     1.0000 0.96507  0.10927  0.78540  Biso   1.000  H
  H182     1.0000 0.19901  0.02643  0.89585  Biso   1.000  H
  H183     1.0000 0.63994  0.92097  0.91965  Biso   1.000  H
  H184     1.0000 0.62528  0.06756  0.82826  Biso   1.000  H
  H185     1.0000 0.04924  0.17659  0.75581  Biso   1.000  H
  H186     1.0000 0.28209  0.09446  0.86766  Biso   1.000  H
  C181     1.0000 0.98283  0.20959  0.20270  Biso   1.000  C
  C182     1.0000 0.02809  0.16361  0.23270  Biso   1.000  C
  H187     1.0000 0.01047  0.23533  0.17797  Biso   1.000  H
  C183     1.0000 0.89714  0.21884  0.20790  Biso   1.000  C
  H188     1.0000 0.08713  0.15817  0.22943  Biso   1.000  H
  C184     1.0000 0.98894  0.12520  0.26769  Biso   1.000  C
  C185     1.0000 0.85673  0.17993  0.24089  Biso   1.000  C
  C186     1.0000 0.85302  0.27008  0.18190  Biso   1.000  C
  C187     1.0000 0.03969  0.07735  0.30388  Biso   1.000  C
  C188     1.0000 0.90164  0.13376  0.27009  Biso   1.000  C
  H189     1.0000 0.79729  0.18526  0.24343  Biso   1.000  H
  N49      1.0000 0.77725  0.28193  0.18770  Biso   1.000  N
  H190     1.0000 0.88372  0.29542  0.15971  Biso   1.000  H
  N50      1.0000 0.12765  0.07502  0.30955  Biso   1.000  N
  N51      1.0000 0.99677  0.03957  0.33108  Biso   1.000  N
  H191     1.0000 0.87269  0.10736  0.29215  Biso   1.000  H
  C189     1.0000 0.74290  0.33464  0.16277  Biso   1.000  C
  C190     1.0000 0.17223  0.03110  0.34468  Biso   1.000  C
  C191     1.0000 0.04817  0.99775  0.36694  Biso   1.000  C
  C192     1.0000 0.65750  0.33383  0.07899  Biso   1.000  C
  H192     1.0000 0.79110  0.35590  0.15238  Biso   1.000  H
  H193     1.0000 0.72816  0.35066  0.21210  Biso   1.000  H
  C193     1.0000 0.26973  0.02717  0.35361  Biso   1.000  C
  N52      1.0000 0.13571  0.99172  0.37461  Biso   1.000  N
  C194     1.0000 0.00614  0.95666  0.40353  Biso   1.000  C
  N53      1.0000 0.68002  0.31532  0.00453  Biso   1.000  N
  H194     1.0000 0.61063  0.31085  0.08812  Biso   1.000  H
  H195     1.0000 0.63143  0.36928  0.06626  Biso   1.000  H
  C195     1.0000 0.31610  0.07012  0.33788  Biso   1.000  C
  C196     1.0000 0.31702  0.98107  0.37880  Biso   1.000  C
  C197     1.0000 0.91882  0.96311  0.40500  Biso   1.000  C
  C198     1.0000 0.05406  0.91145  0.43953  Biso   1.000  C
  C199     1.0000 0.59934  0.30984  0.92328  Biso   1.000  C
  H196     1.0000 0.70799  0.28419  0.01300  Biso   1.000  H
  H197     1.0000 0.28405  0.10188  0.31868  Biso   1.000  H
  C200     1.0000 0.40743  0.06701  0.34994  Biso   1.000  C
  C201     1.0000 0.40896  0.97839  0.39060  Biso   1.000  C
  H198     1.0000 0.28613  0.95102  0.38807  Biso   1.000  H
  H199     1.0000 0.88490  0.99351  0.38000  Biso   1.000  H
  C202     1.0000 0.88014  0.92591  0.44233  Biso   1.000  C
  H200     1.0000 0.11447  0.90648  0.43946  Biso   1.000  H
  C203     1.0000 0.01403  0.87375  0.47512  Biso   1.000  C
  H201     1.0000 0.56890  0.34401  0.90635  Biso   1.000  H
  H202     1.0000 0.55506  0.28563  0.93421  Biso   1.000  H
  C204     1.0000 0.62705  0.28924  0.84809  Biso   1.000  C
  C205     1.0000 0.45603  0.02130  0.37834  Biso   1.000  C
  H203     1.0000 0.43801  0.09667  0.33861  Biso   1.000  H
  H204     1.0000 0.44056  0.94624  0.40753  Biso   1.000  H
  C206     1.0000 0.92605  0.88109  0.47619  Biso   1.000  C
  H205     1.0000 0.82070  0.93155  0.44453  Biso   1.000  H
  H206     1.0000 0.04689  0.84277  0.49898  Biso   1.000  H
  N54      1.0000 0.67156  0.23914  0.87655  Biso   1.000  N
  H207     1.0000 0.57213  0.28508  0.79323  Biso   1.000  H
  H208     1.0000 0.66992  0.31373  0.83543  Biso   1.000  H
  C207     1.0000 0.55578  0.01804  0.39740  Biso   1.000  C
  C208     1.0000 0.87946  0.84067  0.51018  Biso   1.000  C
  C209     1.0000 0.75625  0.23649  0.89168  Biso   1.000  C
  N55      1.0000 0.60153  0.05660  0.39100  Biso   1.000  N
  H209     1.0000 0.58596  0.98566  0.41520  Biso   1.000  H
  H210     1.0000 0.82380  0.84961  0.51845  Biso   1.000  H
  N56      1.0000 0.90905  0.79581  0.52865  Biso   1.000  N
  C210     1.0000 0.81064  0.19074  0.93428  Biso   1.000  C
  H211     1.0000 0.78589  0.26479  0.87502  Biso   1.000  H
  C211     1.0000 0.69980  0.04968  0.41353  Biso   1.000  C
  C212     1.0000 0.84927  0.75950  0.55224  Biso   1.000  C
  C213     1.0000 0.77523  0.15463  0.97754  Biso   1.000  C
  C214     1.0000 0.89994  0.18437  0.93628  Biso   1.000  C
  H212     1.0000 0.73349  0.07145  0.46586  Biso   1.000  H
  H213     1.0000 0.71625  0.01291  0.42946  Biso   1.000  H
  C215     1.0000 0.72576  0.06371  0.34128  Biso   1.000  C
  C216     1.0000 0.81926  0.71846  0.48079  Biso   1.000  C
  H214     1.0000 0.79504  0.77801  0.55604  Biso   1.000  H
  H215     1.0000 0.88293  0.74333  0.61077  Biso   1.000  H
  H216     1.0000 0.71443  0.15875  0.97707  Biso   1.000  H
  C217     1.0000 0.82691  0.11308  0.02113  Biso   1.000  C
  C218     1.0000 0.95187  0.14246  0.97967  Biso   1.000  C
  H217     1.0000 0.92543  0.20901  0.90762  Biso   1.000  H
  N57      1.0000 0.68323  0.03180  0.27242  Biso   1.000  N
  H218     1.0000 0.70805  0.10017  0.32401  Biso   1.000  H
  H219     1.0000 0.79327  0.06064  0.35841  Biso   1.000  H
  H220     1.0000 0.76858  0.03545  0.34034  Biso   1.000  H
  H221     1.0000 0.76547  0.09438  0.36454  Biso   1.000  H
  N58      1.0000 0.68083  0.07611  0.24669  Biso   1.000  N
  N59      1.0000 0.76883  0.74158  0.39394  Biso   1.000  N
  H222     1.0000 0.87386  0.69984  0.47819  Biso   1.000  H
  H223     1.0000 0.77950  0.69284  0.49579  Biso   1.000  H
  H224     1.0000 0.80170  0.08878  0.05073  Biso   1.000  H
  C219     1.0000 0.91569  0.10616  0.02240  Biso   1.000  C
  H225     1.0000 0.01261  0.13834  0.98034  Biso   1.000  H
  H226     1.0000 0.65797  0.00202  0.27795  Biso   1.000  H
  C220     1.0000 0.68364  0.05380  0.17924  Biso   1.000  C
  H227     1.0000 0.66637  0.09100  0.17244  Biso   1.000  H
  H228     1.0000 0.64601  0.10410  0.23583  Biso   1.000  H
  C221     1.0000 0.75219  0.70497  0.32128  Biso   1.000  C
  H229     1.0000 0.80252  0.76600  0.38200  Biso   1.000  H
  C222     1.0000 0.97053  0.06087  0.06692  Biso   1.000  C
  C223     1.0000 0.61470  0.02208  0.10932  Biso   1.000  C
  H230     1.0000 0.74537  0.04999  0.17524  Biso   1.000  H
  H231     1.0000 0.73818  0.03090  0.20197  Biso   1.000  H
  H232     1.0000 0.70086  0.08155  0.14538  Biso   1.000  H
  C224     1.0000 0.72383  0.73346  0.23350  Biso   1.000  C
  H233     1.0000 0.70317  0.68040  0.32088  Biso   1.000  H
  H234     1.0000 0.80885  0.68475  0.32988  Biso   1.000  H
  N60      1.0000 0.05838  0.05846  0.07405  Biso   1.000  N
  N61      1.0000 0.92686  0.02394  0.09505  Biso   1.000  N
  N62      1.0000 0.52144  0.03475  0.10598  Biso   1.000  N
  H235     1.0000 0.61976  0.02915  0.05059  Biso   1.000  H
  H236     1.0000 0.62710  0.98465  0.12278  Biso   1.000  H
  N63      1.0000 0.79390  0.77120  0.23230  Biso   1.000  N
  H237     1.0000 0.71399  0.70808  0.18457  Biso   1.000  H
  H238     1.0000 0.66494  0.75173  0.22323  Biso   1.000  H
  C225     1.0000 0.10389  0.01590  0.11378  Biso   1.000  C
  C226     1.0000 0.97753  0.98189  0.13171  Biso   1.000  C
  C227     1.0000 0.47743  0.99911  0.12638  Biso   1.000  C
  C228     1.0000 0.76602  0.81497  0.20030  Biso   1.000  C
  C229     1.0000 0.20152  0.01197  0.12131  Biso   1.000  C
  N64      1.0000 0.06675  0.97609  0.14431  Biso   1.000  N
  C230     1.0000 0.92702  0.93932  0.15591  Biso   1.000  C
  C231     1.0000 0.38231  0.00486  0.12671  Biso   1.000  C
  H239     1.0000 0.50675  0.96634  0.14271  Biso   1.000  H
  C232     1.0000 0.82499  0.85730  0.18950  Biso   1.000  C
  H240     1.0000 0.70183  0.82150  0.18137  Biso   1.000  H
  C233     1.0000 0.24322  0.05360  0.09552  Biso   1.000  C
  C234     1.0000 0.25123  0.96723  0.15031  Biso   1.000  C
  C235     1.0000 0.97033  0.89404  0.19770  Biso   1.000  C
  C236     1.0000 0.83223  0.94294  0.13218  Biso   1.000  C
  C237     1.0000 0.33264  0.05018  0.09818  Biso   1.000  C
  C238     1.0000 0.34130  0.96377  0.15231  Biso   1.000  C
  C239     1.0000 0.92011  0.85373  0.21483  Biso   1.000  C
  C240     1.0000 0.78284  0.90232  0.14911  Biso   1.000  C
  H241     1.0000 0.20973  0.08489  0.07572  Biso   1.000  H
  H242     1.0000 0.22417  0.93858  0.16911  Biso   1.000  H
  H243     1.0000 0.03504  0.89077  0.21456  Biso   1.000  H
  H244     1.0000 0.80113  0.97357  0.10418  Biso   1.000  H
  H245     1.0000 0.36020  0.07903  0.08039  Biso   1.000  H
  H246     1.0000 0.37483  0.93244  0.17171  Biso   1.000  H
  H247     1.0000 0.95089  0.82337  0.24423  Biso   1.000  H
  H248     1.0000 0.71805  0.90550  0.13238  Biso   1.000  H
