data_image0
_cell_length_a       17.443
_cell_length_b       17.443
_cell_length_c       17.443
_cell_angle_alpha    90
_cell_angle_beta     90
_cell_angle_gamma    90

_symmetry_space_group_name_H-M    "P 1"
_symmetry_int_tables_number       1

loop_
  _symmetry_equiv_pos_as_xyz
  'x, y, z'

loop_
  _atom_site_label
  _atom_site_occupancy
  _atom_site_fract_x
  _atom_site_fract_y
  _atom_site_fract_z
  _atom_site_thermal_displace_type
  _atom_site_B_iso_or_equiv
  _atom_site_type_symbol
  N1       1.0000 0.52359  0.30367  0.42647  Biso   1.000  N
  C1       1.0000 0.47532  0.27019  0.36479  Biso   1.000  C
  H1       1.0000 0.50140  0.29381  0.47331  Biso   1.000  H
  H2       1.0000 0.52583  0.35607  0.42040  Biso   1.000  H
  C2       1.0000 0.60391  0.27163  0.42567  Biso   1.000  C
  C3       1.0000 0.39099  0.28682  0.37539  Biso   1.000  C
  H3       1.0000 0.48312  0.21401  0.36370  Biso   1.000  H
  H4       1.0000 0.49212  0.29100  0.31480  Biso   1.000  H
  H5       1.0000 0.60162  0.21499  0.42842  Biso   1.000  H
  H6       1.0000 0.62942  0.28579  0.37700  Biso   1.000  H
  C4       1.0000 0.65058  0.30150  0.49212  Biso   1.000  C
  N2       1.0000 0.36800  0.36800  0.36800  Biso   1.000  N
  H7       1.0000 0.36198  0.25649  0.33710  Biso   1.000  H
  H8       1.0000 0.37562  0.26847  0.42682  Biso   1.000  H
  C5       1.0000 0.63498  0.27690  0.56498  Biso   1.000  C
  C6       1.0000 0.71077  0.35269  0.47882  Biso   1.000  C
  C7       1.0000 0.28682  0.37539  0.39099  Biso   1.000  C
  C8       1.0000 0.37539  0.39099  0.28682  Biso   1.000  C
  H9       1.0000 0.59468  0.24130  0.57370  Biso   1.000  H
  C9       1.0000 0.67741  0.30350  0.62529  Biso   1.000  C
  C10      1.0000 0.75457  0.37952  0.54027  Biso   1.000  C
  H10      1.0000 0.72201  0.36920  0.42808  Biso   1.000  H
  C11      1.0000 0.27019  0.36479  0.47532  Biso   1.000  C
  H11      1.0000 0.25649  0.33710  0.36198  Biso   1.000  H
  H12      1.0000 0.26847  0.42682  0.37562  Biso   1.000  H
  H13      1.0000 0.33710  0.36198  0.25649  Biso   1.000  H
  H14      1.0000 0.42682  0.37562  0.26847  Biso   1.000  H
  C12      1.0000 0.36479  0.47532  0.27019  Biso   1.000  C
  H15      1.0000 0.66588  0.28682  0.67580  Biso   1.000  H
  C13      1.0000 0.73669  0.35430  0.61371  Biso   1.000  C
  C14      1.0000 0.81597  0.43869  0.52898  Biso   1.000  C
  N3       1.0000 0.30367  0.42647  0.52359  Biso   1.000  N
  H16      1.0000 0.21401  0.36370  0.48312  Biso   1.000  H
  H17      1.0000 0.29100  0.31480  0.49212  Biso   1.000  H
  H18      1.0000 0.36370  0.48312  0.21401  Biso   1.000  H
  H19      1.0000 0.31480  0.49212  0.29100  Biso   1.000  H
  N4       1.0000 0.42647  0.52359  0.30367  Biso   1.000  N
  H20      1.0000 0.76569  0.37230  0.65619  Biso   1.000  H
  H21      1.0000 0.84418  0.42802  0.48100  Biso   1.000  H
  H22      1.0000 0.85289  0.43622  0.57209  Biso   1.000  H
  N5       1.0000 0.78112  0.51849  0.52508  Biso   1.000  N
  C15      1.0000 0.27163  0.42567  0.60391  Biso   1.000  C
  H23      1.0000 0.29381  0.47331  0.50140  Biso   1.000  H
  H24      1.0000 0.35607  0.42040  0.52583  Biso   1.000  H
  H25      1.0000 0.47331  0.50140  0.29381  Biso   1.000  H
  H26      1.0000 0.42040  0.52583  0.35607  Biso   1.000  H
  C16      1.0000 0.42567  0.60391  0.27163  Biso   1.000  C
  H27      1.0000 0.81981  0.55432  0.52812  Biso   1.000  H
  H28      1.0000 0.75721  0.52451  0.47847  Biso   1.000  H
  C17      1.0000 0.72528  0.53322  0.58683  Biso   1.000  C
  C18      1.0000 0.30150  0.49212  0.65058  Biso   1.000  C
  H29      1.0000 0.21499  0.42842  0.60162  Biso   1.000  H
  H30      1.0000 0.28579  0.37700  0.62942  Biso   1.000  H
  H31      1.0000 0.42842  0.60162  0.21499  Biso   1.000  H
  H32      1.0000 0.37700  0.62942  0.28579  Biso   1.000  H
  C19      1.0000 0.49212  0.65058  0.30150  Biso   1.000  C
  H33      1.0000 0.74758  0.51723  0.63647  Biso   1.000  H
  H34      1.0000 0.67872  0.50221  0.57771  Biso   1.000  H
  C20      1.0000 0.70349  0.61773  0.59090  Biso   1.000  C
  C21      1.0000 0.27690  0.56498  0.63498  Biso   1.000  C
  C22      1.0000 0.35269  0.47882  0.71077  Biso   1.000  C
  C23      1.0000 0.56498  0.63498  0.27690  Biso   1.000  C
  C24      1.0000 0.47882  0.71077  0.35269  Biso   1.000  C
  H35      1.0000 0.73990  0.64559  0.62432  Biso   1.000  H
  H36      1.0000 0.70533  0.64089  0.53913  Biso   1.000  H
  N6       1.0000 0.62317  0.62317  0.62317  Biso   1.000  N
  C25      1.0000 0.30350  0.62529  0.67741  Biso   1.000  C
  H37      1.0000 0.24130  0.57370  0.59468  Biso   1.000  H
  C26      1.0000 0.37952  0.54027  0.75457  Biso   1.000  C
  H38      1.0000 0.36920  0.42808  0.72201  Biso   1.000  H
  H39      1.0000 0.57370  0.59468  0.24130  Biso   1.000  H
  C27      1.0000 0.62529  0.67741  0.30350  Biso   1.000  C
  C28      1.0000 0.54027  0.75457  0.37952  Biso   1.000  C
  H40      1.0000 0.42808  0.72201  0.36920  Biso   1.000  H
  C29      1.0000 0.61773  0.59090  0.70349  Biso   1.000  C
  C30      1.0000 0.59090  0.70349  0.61773  Biso   1.000  C
  C31      1.0000 0.35430  0.61371  0.73669  Biso   1.000  C
  H41      1.0000 0.28682  0.67580  0.66588  Biso   1.000  H
  C32      1.0000 0.43869  0.52898  0.81597  Biso   1.000  C
  H42      1.0000 0.67580  0.66588  0.28682  Biso   1.000  H
  C33      1.0000 0.61371  0.73669  0.35430  Biso   1.000  C
  C34      1.0000 0.52898  0.81597  0.43869  Biso   1.000  C
  C35      1.0000 0.53322  0.58683  0.72528  Biso   1.000  C
  H43      1.0000 0.64559  0.62432  0.73990  Biso   1.000  H
  H44      1.0000 0.64089  0.53913  0.70533  Biso   1.000  H
  C36      1.0000 0.58683  0.72528  0.53322  Biso   1.000  C
  H45      1.0000 0.62432  0.73990  0.64559  Biso   1.000  H
  H46      1.0000 0.53913  0.70533  0.64089  Biso   1.000  H
  H47      1.0000 0.37230  0.65619  0.76569  Biso   1.000  H
  N7       1.0000 0.51849  0.52508  0.78112  Biso   1.000  N
  H48      1.0000 0.42802  0.48100  0.84418  Biso   1.000  H
  H49      1.0000 0.43622  0.57209  0.85289  Biso   1.000  H
  H50      1.0000 0.65619  0.76569  0.37230  Biso   1.000  H
  H51      1.0000 0.48100  0.84418  0.42802  Biso   1.000  H
  H52      1.0000 0.57209  0.85289  0.43622  Biso   1.000  H
  N8       1.0000 0.52508  0.78112  0.51849  Biso   1.000  N
  H53      1.0000 0.51723  0.63647  0.74758  Biso   1.000  H
  H54      1.0000 0.50221  0.57771  0.67872  Biso   1.000  H
  H55      1.0000 0.63647  0.74758  0.51723  Biso   1.000  H
  H56      1.0000 0.57771  0.67872  0.50221  Biso   1.000  H
  H57      1.0000 0.55432  0.52812  0.81981  Biso   1.000  H
  H58      1.0000 0.52451  0.47847  0.75721  Biso   1.000  H
  H59      1.0000 0.52812  0.81981  0.55432  Biso   1.000  H
  H60      1.0000 0.47847  0.75721  0.52451  Biso   1.000  H
  C37      1.0000 0.76329  0.64570  0.11368  Biso   1.000  C
  C38      1.0000 0.74540  0.62048  0.04030  Biso   1.000  C
  C39      1.0000 0.82262  0.69650  0.12532  Biso   1.000  C
  H61      1.0000 0.73428  0.62770  0.15622  Biso   1.000  H
  C40      1.0000 0.68400  0.56131  0.02901  Biso   1.000  C
  C41      1.0000 0.78920  0.64731  0.97879  Biso   1.000  C
  C42      1.0000 0.86499  0.72310  0.06501  Biso   1.000  C
  H62      1.0000 0.83409  0.71318  0.17577  Biso   1.000  H
  N9       1.0000 0.71891  0.48151  0.02511  Biso   1.000  N
  H63      1.0000 0.64708  0.56378  0.07212  Biso   1.000  H
  H64      1.0000 0.65579  0.57198  0.98102  Biso   1.000  H
  C43      1.0000 0.84940  0.69850  0.99209  Biso   1.000  C
  H65      1.0000 0.77802  0.63080  0.92811  Biso   1.000  H
  H66      1.0000 0.90529  0.75870  0.07373  Biso   1.000  H
  H67      1.0000 0.68022  0.44568  0.02809  Biso   1.000  H
  C44      1.0000 0.77469  0.46678  0.08680  Biso   1.000  C
  H68      1.0000 0.74282  0.47549  0.97850  Biso   1.000  H
  C45      1.0000 0.89612  0.72837  0.92570  Biso   1.000  C
  H69      1.0000 0.75239  0.48277  0.13650  Biso   1.000  H
  H70      1.0000 0.82130  0.49779  0.07768  Biso   1.000  H
  C46      1.0000 0.79648  0.38227  0.09092  Biso   1.000  C
  N10      1.0000 0.97638  0.69633  0.92650  Biso   1.000  N
  H71      1.0000 0.89841  0.78501  0.92840  Biso   1.000  H
  H72      1.0000 0.87061  0.71421  0.87703  Biso   1.000  H
  H73      1.0000 0.76008  0.35441  0.12429  Biso   1.000  H
  H74      1.0000 0.79470  0.35911  0.03910  Biso   1.000  H
  N11      1.0000 0.87680  0.37683  0.12320  Biso   1.000  N
  H75      1.0000 0.99862  0.70619  0.97328  Biso   1.000  H
  H76      1.0000 0.97420  0.64393  0.92043  Biso   1.000  H
  C47      1.0000 0.02471  0.72981  0.86482  Biso   1.000  C
  C48      1.0000 0.88230  0.40910  0.20352  Biso   1.000  C
  C49      1.0000 0.90908  0.29651  0.11770  Biso   1.000  C
  C50      1.0000 0.10898  0.71318  0.87542  Biso   1.000  C
  H77      1.0000 0.01691  0.78599  0.86373  Biso   1.000  H
  H78      1.0000 0.00791  0.70900  0.81483  Biso   1.000  H
  C51      1.0000 0.96681  0.41317  0.22531  Biso   1.000  C
  H79      1.0000 0.85438  0.37568  0.23992  Biso   1.000  H
  H80      1.0000 0.85908  0.46087  0.20530  Biso   1.000  H
  C52      1.0000 0.91320  0.27472  0.03319  Biso   1.000  C
  H81      1.0000 0.87571  0.26010  0.14562  Biso   1.000  H
  H82      1.0000 0.96090  0.29467  0.14092  Biso   1.000  H
  N12      1.0000 0.13197  0.63200  0.86803  Biso   1.000  N
  H83      1.0000 0.13799  0.74351  0.83713  Biso   1.000  H
  H84      1.0000 0.12441  0.73153  0.92679  Biso   1.000  H
  N13      1.0000 0.98148  0.47492  0.28109  Biso   1.000  N
  H85      1.0000 0.98280  0.36353  0.24761  Biso   1.000  H
  H86      1.0000 0.99782  0.42229  0.17870  Biso   1.000  H
  N14      1.0000 0.97489  0.21888  0.01852  Biso   1.000  N
  H87      1.0000 0.86350  0.25242  0.01720  Biso   1.000  H
  H88      1.0000 0.92232  0.32128  0.00218  Biso   1.000  H
  C53      1.0000 0.21321  0.62461  0.89102  Biso   1.000  C
  C54      1.0000 0.12458  0.60901  0.78679  Biso   1.000  C
  H89      1.0000 0.94571  0.47188  0.31978  Biso   1.000  H
  H90      1.0000 0.97552  0.52153  0.25718  Biso   1.000  H
  C55      1.0000 0.06129  0.47102  0.31600  Biso   1.000  C
  H91      1.0000 0.97191  0.18019  0.05429  Biso   1.000  H
  C56      1.0000 0.97099  0.18403  0.93871  Biso   1.000  C
  H92      1.0000 0.02150  0.24279  0.02448  Biso   1.000  H
  C57      1.0000 0.22978  0.63521  0.97529  Biso   1.000  C
  H93      1.0000 0.24348  0.66290  0.86201  Biso   1.000  H
  H94      1.0000 0.23150  0.57318  0.87559  Biso   1.000  H
  H95      1.0000 0.16287  0.63802  0.75652  Biso   1.000  H
  H96      1.0000 0.07321  0.62438  0.76850  Biso   1.000  H
  C58      1.0000 0.13518  0.52468  0.77022  Biso   1.000  C
  C59      1.0000 0.12051  0.45973  0.25460  Biso   1.000  C
  H97      1.0000 0.07201  0.51900  0.34421  Biso   1.000  H
  H98      1.0000 0.06381  0.42791  0.35292  Biso   1.000  H
  C60      1.0000 0.95970  0.24543  0.87949  Biso   1.000  C
  H99      1.0000 0.92788  0.14711  0.93619  Biso   1.000  H
  H100     1.0000 0.01898  0.15582  0.92799  Biso   1.000  H
  H101     1.0000 0.28602  0.63630  0.98309  Biso   1.000  H
  H102     1.0000 0.20902  0.68520  0.99209  Biso   1.000  H
  N15      1.0000 0.19630  0.57353  0.02362  Biso   1.000  N
  H103     1.0000 0.13627  0.51688  0.71398  Biso   1.000  H
  H104     1.0000 0.18517  0.50788  0.79098  Biso   1.000  H
  N16      1.0000 0.07350  0.47641  0.80370  Biso   1.000  N
  C61      1.0000 0.14567  0.38629  0.23671  Biso   1.000  C
  C62      1.0000 0.14728  0.52118  0.21080  Biso   1.000  C
  C63      1.0000 0.88632  0.26331  0.85433  Biso   1.000  C
  C64      1.0000 0.02121  0.28923  0.85272  Biso   1.000  C
  C65      1.0000 0.22840  0.57433  0.10388  Biso   1.000  C
  H105     1.0000 0.20621  0.52669  0.00138  Biso   1.000  H
  H106     1.0000 0.14390  0.57960  0.02580  Biso   1.000  H
  C66      1.0000 0.07430  0.39609  0.77160  Biso   1.000  C
  H107     1.0000 0.02672  0.49860  0.79379  Biso   1.000  H
  H108     1.0000 0.07957  0.47417  0.85610  Biso   1.000  H
  C67      1.0000 0.19653  0.37471  0.17738  Biso   1.000  C
  H109     1.0000 0.12767  0.34381  0.26572  Biso   1.000  H
  C68      1.0000 0.19848  0.50788  0.15060  Biso   1.000  C
  H110     1.0000 0.13083  0.57192  0.22198  Biso   1.000  H
  C69      1.0000 0.87468  0.32259  0.80347  Biso   1.000  C
  H111     1.0000 0.84378  0.23431  0.87233  Biso   1.000  H
  C70      1.0000 0.00791  0.34942  0.80152  Biso   1.000  C
  H112     1.0000 0.07189  0.27799  0.86917  Biso   1.000  H
  H113     1.0000 0.28499  0.57158  0.10159  Biso   1.000  H
  H114     1.0000 0.21418  0.62300  0.12939  Biso   1.000  H
  H115     1.0000 0.07160  0.39838  0.71501  Biso   1.000  H
  H116     1.0000 0.12297  0.37058  0.78582  Biso   1.000  H
  C71      1.0000 0.22313  0.43502  0.13501  Biso   1.000  C
  H117     1.0000 0.21321  0.32420  0.16591  Biso   1.000  H
  C72      1.0000 0.93499  0.36502  0.77687  Biso   1.000  C
  H118     1.0000 0.82423  0.33412  0.78679  Biso   1.000  H
  H119     1.0000 0.25873  0.42630  0.09471  Biso   1.000  H
  H120     1.0000 0.92627  0.40532  0.74127  Biso   1.000  H
  C73      1.0000 0.64570  0.11368  0.76329  Biso   1.000  C
  C74      1.0000 0.62048  0.04030  0.74540  Biso   1.000  C
  C75      1.0000 0.69650  0.12532  0.82262  Biso   1.000  C
  H121     1.0000 0.62770  0.15622  0.73428  Biso   1.000  H
  C76      1.0000 0.56131  0.02901  0.68400  Biso   1.000  C
  C77      1.0000 0.64731  0.97879  0.78920  Biso   1.000  C
  C78      1.0000 0.72310  0.06501  0.86499  Biso   1.000  C
  H122     1.0000 0.71318  0.17577  0.83409  Biso   1.000  H
  N17      1.0000 0.48151  0.02511  0.71891  Biso   1.000  N
  H123     1.0000 0.56378  0.07212  0.64708  Biso   1.000  H
  H124     1.0000 0.57198  0.98102  0.65579  Biso   1.000  H
  C79      1.0000 0.69850  0.99209  0.84940  Biso   1.000  C
  H125     1.0000 0.63080  0.92811  0.77802  Biso   1.000  H
  H126     1.0000 0.75870  0.07373  0.90529  Biso   1.000  H
  C80      1.0000 0.46678  0.08680  0.77469  Biso   1.000  C
  H127     1.0000 0.44568  0.02809  0.68022  Biso   1.000  H
  H128     1.0000 0.47549  0.97850  0.74282  Biso   1.000  H
  C81      1.0000 0.72837  0.92570  0.89612  Biso   1.000  C
  C82      1.0000 0.38227  0.09092  0.79648  Biso   1.000  C
  H129     1.0000 0.48277  0.13650  0.75239  Biso   1.000  H
  H130     1.0000 0.49779  0.07768  0.82130  Biso   1.000  H
  N18      1.0000 0.69633  0.92650  0.97638  Biso   1.000  N
  H131     1.0000 0.78501  0.92840  0.89841  Biso   1.000  H
  H132     1.0000 0.71421  0.87703  0.87061  Biso   1.000  H
  N19      1.0000 0.37683  0.12320  0.87680  Biso   1.000  N
  H133     1.0000 0.35441  0.12429  0.76008  Biso   1.000  H
  H134     1.0000 0.35911  0.03910  0.79470  Biso   1.000  H
  H135     1.0000 0.70619  0.97328  0.99862  Biso   1.000  H
  H136     1.0000 0.64393  0.92043  0.97420  Biso   1.000  H
  C83      1.0000 0.72981  0.86482  0.02471  Biso   1.000  C
  C84      1.0000 0.29651  0.11770  0.90908  Biso   1.000  C
  C85      1.0000 0.40910  0.20352  0.88230  Biso   1.000  C
  C86      1.0000 0.71318  0.87542  0.10898  Biso   1.000  C
  H137     1.0000 0.78599  0.86373  0.01691  Biso   1.000  H
  H138     1.0000 0.70900  0.81483  0.00791  Biso   1.000  H
  C87      1.0000 0.27472  0.03319  0.91320  Biso   1.000  C
  H139     1.0000 0.26010  0.14562  0.87571  Biso   1.000  H
  H140     1.0000 0.29467  0.14092  0.96090  Biso   1.000  H
  C88      1.0000 0.41317  0.22531  0.96681  Biso   1.000  C
  H141     1.0000 0.37568  0.23992  0.85438  Biso   1.000  H
  H142     1.0000 0.46087  0.20530  0.85908  Biso   1.000  H
  N20      1.0000 0.63200  0.86803  0.13197  Biso   1.000  N
  H143     1.0000 0.74351  0.83713  0.13799  Biso   1.000  H
  H144     1.0000 0.73153  0.92679  0.12441  Biso   1.000  H
  N21      1.0000 0.21888  0.01852  0.97489  Biso   1.000  N
  H145     1.0000 0.25242  0.01720  0.86350  Biso   1.000  H
  H146     1.0000 0.32128  0.00218  0.92232  Biso   1.000  H
  N22      1.0000 0.47492  0.28109  0.98148  Biso   1.000  N
  H147     1.0000 0.36353  0.24761  0.98280  Biso   1.000  H
  H148     1.0000 0.42229  0.17870  0.99782  Biso   1.000  H
  C89      1.0000 0.60901  0.78679  0.12458  Biso   1.000  C
  C90      1.0000 0.62461  0.89102  0.21321  Biso   1.000  C
  H149     1.0000 0.18019  0.05429  0.97191  Biso   1.000  H
  C91      1.0000 0.18403  0.93871  0.97099  Biso   1.000  C
  H150     1.0000 0.24279  0.02448  0.02150  Biso   1.000  H
  H151     1.0000 0.47188  0.31978  0.94571  Biso   1.000  H
  H152     1.0000 0.52153  0.25718  0.97552  Biso   1.000  H
  C92      1.0000 0.47102  0.31600  0.06129  Biso   1.000  C
  H153     1.0000 0.63802  0.75652  0.16287  Biso   1.000  H
  H154     1.0000 0.62438  0.76850  0.07321  Biso   1.000  H
  C93      1.0000 0.52468  0.77022  0.13518  Biso   1.000  C
  H155     1.0000 0.66290  0.86201  0.24348  Biso   1.000  H
  H156     1.0000 0.57318  0.87559  0.23150  Biso   1.000  H
  C94      1.0000 0.63521  0.97529  0.22978  Biso   1.000  C
  C95      1.0000 0.24543  0.87949  0.95970  Biso   1.000  C
  H157     1.0000 0.14711  0.93619  0.92788  Biso   1.000  H
  H158     1.0000 0.15582  0.92799  0.01898  Biso   1.000  H
  C96      1.0000 0.45973  0.25460  0.12051  Biso   1.000  C
  H159     1.0000 0.51900  0.34421  0.07201  Biso   1.000  H
  H160     1.0000 0.42791  0.35292  0.06381  Biso   1.000  H
  N23      1.0000 0.47641  0.80370  0.07350  Biso   1.000  N
  H161     1.0000 0.51688  0.71398  0.13627  Biso   1.000  H
  H162     1.0000 0.50788  0.79098  0.18517  Biso   1.000  H
  N24      1.0000 0.57353  0.02362  0.19630  Biso   1.000  N
  H163     1.0000 0.63630  0.98309  0.28602  Biso   1.000  H
  H164     1.0000 0.68520  0.99209  0.20902  Biso   1.000  H
  C97      1.0000 0.26331  0.85433  0.88632  Biso   1.000  C
  C98      1.0000 0.28923  0.85272  0.02121  Biso   1.000  C
  C99      1.0000 0.38629  0.23671  0.14567  Biso   1.000  C
  C100     1.0000 0.52118  0.21080  0.14728  Biso   1.000  C
  C101     1.0000 0.39609  0.77160  0.07430  Biso   1.000  C
  H165     1.0000 0.49860  0.79379  0.02672  Biso   1.000  H
  H166     1.0000 0.47417  0.85610  0.07957  Biso   1.000  H
  C102     1.0000 0.57433  0.10388  0.22840  Biso   1.000  C
  H167     1.0000 0.52669  0.00138  0.20621  Biso   1.000  H
  H168     1.0000 0.57960  0.02580  0.14390  Biso   1.000  H
  C103     1.0000 0.32259  0.80347  0.87468  Biso   1.000  C
  H169     1.0000 0.23431  0.87233  0.84378  Biso   1.000  H
  C104     1.0000 0.34942  0.80152  0.00791  Biso   1.000  C
  H170     1.0000 0.27799  0.86917  0.07189  Biso   1.000  H
  C105     1.0000 0.37471  0.17738  0.19653  Biso   1.000  C
  H171     1.0000 0.34381  0.26572  0.12767  Biso   1.000  H
  C106     1.0000 0.50788  0.15060  0.19848  Biso   1.000  C
  H172     1.0000 0.57192  0.22198  0.13083  Biso   1.000  H
  H173     1.0000 0.39838  0.71501  0.07160  Biso   1.000  H
  H174     1.0000 0.37058  0.78582  0.12297  Biso   1.000  H
  H175     1.0000 0.57158  0.10159  0.28499  Biso   1.000  H
  H176     1.0000 0.62300  0.12939  0.21418  Biso   1.000  H
  C107     1.0000 0.36502  0.77687  0.93499  Biso   1.000  C
  H177     1.0000 0.33412  0.78679  0.82423  Biso   1.000  H
  C108     1.0000 0.43502  0.13501  0.22313  Biso   1.000  C
  H178     1.0000 0.32420  0.16591  0.21321  Biso   1.000  H
  H179     1.0000 0.40532  0.74127  0.92627  Biso   1.000  H
  H180     1.0000 0.42630  0.09471  0.25873  Biso   1.000  H
  C109     1.0000 0.11368  0.76329  0.64570  Biso   1.000  C
  C110     1.0000 0.04030  0.74540  0.62048  Biso   1.000  C
  C111     1.0000 0.12532  0.82262  0.69650  Biso   1.000  C
  H181     1.0000 0.15622  0.73428  0.62770  Biso   1.000  H
  C112     1.0000 0.02901  0.68400  0.56131  Biso   1.000  C
  C113     1.0000 0.97879  0.78920  0.64731  Biso   1.000  C
  C114     1.0000 0.06501  0.86499  0.72310  Biso   1.000  C
  H182     1.0000 0.17577  0.83409  0.71318  Biso   1.000  H
  N25      1.0000 0.02511  0.71891  0.48151  Biso   1.000  N
  H183     1.0000 0.07212  0.64708  0.56378  Biso   1.000  H
  H184     1.0000 0.98102  0.65579  0.57198  Biso   1.000  H
  C115     1.0000 0.99209  0.84940  0.69850  Biso   1.000  C
  H185     1.0000 0.92811  0.77802  0.63080  Biso   1.000  H
  H186     1.0000 0.07373  0.90529  0.75870  Biso   1.000  H
  H187     1.0000 0.02809  0.68022  0.44568  Biso   1.000  H
  C116     1.0000 0.08680  0.77469  0.46678  Biso   1.000  C
  H188     1.0000 0.97850  0.74282  0.47549  Biso   1.000  H
  C117     1.0000 0.92570  0.89612  0.72837  Biso   1.000  C
  H189     1.0000 0.13650  0.75239  0.48277  Biso   1.000  H
  H190     1.0000 0.07768  0.82130  0.49779  Biso   1.000  H
  C118     1.0000 0.09092  0.79648  0.38227  Biso   1.000  C
  N26      1.0000 0.92650  0.97638  0.69633  Biso   1.000  N
  H191     1.0000 0.92840  0.89841  0.78501  Biso   1.000  H
  H192     1.0000 0.87703  0.87061  0.71421  Biso   1.000  H
  N27      1.0000 0.12320  0.87680  0.37683  Biso   1.000  N
  H193     1.0000 0.12429  0.76008  0.35441  Biso   1.000  H
  H194     1.0000 0.03910  0.79470  0.35911  Biso   1.000  H
  H195     1.0000 0.97328  0.99862  0.70619  Biso   1.000  H
  H196     1.0000 0.92043  0.97420  0.64393  Biso   1.000  H
  C119     1.0000 0.86482  0.02471  0.72981  Biso   1.000  C
  C120     1.0000 0.20352  0.88230  0.40910  Biso   1.000  C
  C121     1.0000 0.11770  0.90908  0.29651  Biso   1.000  C
  C122     1.0000 0.87542  0.10898  0.71318  Biso   1.000  C
  H197     1.0000 0.86373  0.01691  0.78599  Biso   1.000  H
  H198     1.0000 0.81483  0.00791  0.70900  Biso   1.000  H
  C123     1.0000 0.22531  0.96681  0.41317  Biso   1.000  C
  H199     1.0000 0.23992  0.85438  0.37568  Biso   1.000  H
  H200     1.0000 0.20530  0.85908  0.46087  Biso   1.000  H
  C124     1.0000 0.03319  0.91320  0.27472  Biso   1.000  C
  H201     1.0000 0.14562  0.87571  0.26010  Biso   1.000  H
  H202     1.0000 0.14092  0.96090  0.29467  Biso   1.000  H
  N28      1.0000 0.86803  0.13197  0.63200  Biso   1.000  N
  H203     1.0000 0.83713  0.13799  0.74351  Biso   1.000  H
  H204     1.0000 0.92679  0.12441  0.73153  Biso   1.000  H
  N29      1.0000 0.28109  0.98148  0.47492  Biso   1.000  N
  H205     1.0000 0.24761  0.98280  0.36353  Biso   1.000  H
  H206     1.0000 0.17870  0.99782  0.42229  Biso   1.000  H
  N30      1.0000 0.01852  0.97489  0.21888  Biso   1.000  N
  H207     1.0000 0.01720  0.86350  0.25242  Biso   1.000  H
  H208     1.0000 0.00218  0.92232  0.32128  Biso   1.000  H
  C125     1.0000 0.89102  0.21321  0.62461  Biso   1.000  C
  C126     1.0000 0.78679  0.12458  0.60901  Biso   1.000  C
  H209     1.0000 0.31978  0.94571  0.47188  Biso   1.000  H
  H210     1.0000 0.25718  0.97552  0.52153  Biso   1.000  H
  C127     1.0000 0.31600  0.06129  0.47102  Biso   1.000  C
  H211     1.0000 0.05429  0.97191  0.18019  Biso   1.000  H
  C128     1.0000 0.93871  0.97099  0.18403  Biso   1.000  C
  H212     1.0000 0.02448  0.02150  0.24279  Biso   1.000  H
  H213     1.0000 0.86201  0.24348  0.66290  Biso   1.000  H
  H214     1.0000 0.87559  0.23150  0.57318  Biso   1.000  H
  C129     1.0000 0.97529  0.22978  0.63521  Biso   1.000  C
  C130     1.0000 0.77022  0.13518  0.52468  Biso   1.000  C
  H215     1.0000 0.75652  0.16287  0.63802  Biso   1.000  H
  H216     1.0000 0.76850  0.07321  0.62438  Biso   1.000  H
  C131     1.0000 0.25460  0.12051  0.45973  Biso   1.000  C
  H217     1.0000 0.34421  0.07201  0.51900  Biso   1.000  H
  H218     1.0000 0.35292  0.06381  0.42791  Biso   1.000  H
  C132     1.0000 0.87949  0.95970  0.24543  Biso   1.000  C
  H219     1.0000 0.93619  0.92788  0.14711  Biso   1.000  H
  H220     1.0000 0.92799  0.01898  0.15582  Biso   1.000  H
  H221     1.0000 0.98309  0.28602  0.63630  Biso   1.000  H
  H222     1.0000 0.99209  0.20902  0.68520  Biso   1.000  H
  N31      1.0000 0.02362  0.19630  0.57353  Biso   1.000  N
  N32      1.0000 0.80370  0.07350  0.47641  Biso   1.000  N
  H223     1.0000 0.71398  0.13627  0.51688  Biso   1.000  H
  H224     1.0000 0.79098  0.18517  0.50788  Biso   1.000  H
  C133     1.0000 0.23671  0.14567  0.38629  Biso   1.000  C
  C134     1.0000 0.21080  0.14728  0.52118  Biso   1.000  C
  C135     1.0000 0.85433  0.88632  0.26331  Biso   1.000  C
  C136     1.0000 0.85272  0.02121  0.28923  Biso   1.000  C
  C137     1.0000 0.10388  0.22840  0.57433  Biso   1.000  C
  H225     1.0000 0.00138  0.20621  0.52669  Biso   1.000  H
  H226     1.0000 0.02580  0.14390  0.57960  Biso   1.000  H
  C138     1.0000 0.77160  0.07430  0.39609  Biso   1.000  C
  H227     1.0000 0.79379  0.02672  0.49860  Biso   1.000  H
  H228     1.0000 0.85610  0.07957  0.47417  Biso   1.000  H
  C139     1.0000 0.17738  0.19653  0.37471  Biso   1.000  C
  H229     1.0000 0.26572  0.12767  0.34381  Biso   1.000  H
  C140     1.0000 0.15060  0.19848  0.50788  Biso   1.000  C
  H230     1.0000 0.22198  0.13083  0.57192  Biso   1.000  H
  C141     1.0000 0.80347  0.87468  0.32259  Biso   1.000  C
  H231     1.0000 0.87233  0.84378  0.23431  Biso   1.000  H
  C142     1.0000 0.80152  0.00791  0.34942  Biso   1.000  C
  H232     1.0000 0.86917  0.07189  0.27799  Biso   1.000  H
  H233     1.0000 0.10159  0.28499  0.57158  Biso   1.000  H
  H234     1.0000 0.12939  0.21418  0.62300  Biso   1.000  H
  H235     1.0000 0.71501  0.07160  0.39838  Biso   1.000  H
  H236     1.0000 0.78582  0.12297  0.37058  Biso   1.000  H
  C143     1.0000 0.13501  0.22313  0.43502  Biso   1.000  C
  H237     1.0000 0.16591  0.21321  0.32420  Biso   1.000  H
  C144     1.0000 0.77687  0.93499  0.36502  Biso   1.000  C
  H238     1.0000 0.78679  0.82423  0.33412  Biso   1.000  H
  H239     1.0000 0.09471  0.25873  0.42630  Biso   1.000  H
  H240     1.0000 0.74127  0.92627  0.40532  Biso   1.000  H
