data_image0
_cell_length_a       10.866
_cell_length_b       10.866
_cell_length_c       43.37
_cell_angle_alpha    90
_cell_angle_beta     90
_cell_angle_gamma    120

_symmetry_space_group_name_H-M    "P 1"
_symmetry_int_tables_number       1

loop_
  _symmetry_equiv_pos_as_xyz
  'x, y, z'

loop_
  _atom_site_label
  _atom_site_occupancy
  _atom_site_fract_x
  _atom_site_fract_y
  _atom_site_fract_z
  _atom_site_thermal_displace_type
  _atom_site_B_iso_or_equiv
  _atom_site_type_symbol
  C1       1.0000 0.48470  0.77246  0.46396  Biso   1.000  C
  C2       1.0000 0.43721  0.62262  0.46415  Biso   1.000  C
  O1       1.0000 0.61511  0.86321  0.46362  Biso   1.000  O
  C3       1.0000 0.37741  0.81465  0.46415  Biso   1.000  C
  C4       1.0000 0.53467  0.57533  0.46385  Biso   1.000  C
  C5       1.0000 0.28783  0.51529  0.46396  Biso   1.000  C
  C6       1.0000 0.42466  0.95938  0.46385  Biso   1.000  C
  C7       1.0000 0.22754  0.71220  0.46396  Biso   1.000  C
  N1       1.0000 0.67320  0.65524  0.46387  Biso   1.000  N
  H1       1.0000 0.49789  0.47746  0.46359  Biso   1.000  H
  C8       1.0000 0.18541  0.56279  0.46415  Biso   1.000  C
  O2       1.0000 0.24813  0.38490  0.46362  Biso   1.000  O
  N2       1.0000 0.34484  0.01804  0.46387  Biso   1.000  N
  H2       1.0000 0.52252  0.02038  0.46359  Biso   1.000  H
  O3       1.0000 0.13679  0.75195  0.46362  Biso   1.000  O
  C9       1.0000 0.77091  0.60200  0.45921  Biso   1.000  C
  H3       1.0000 0.70970  0.74483  0.46719  Biso   1.000  H
  C10      1.0000 0.04061  0.46534  0.46385  Biso   1.000  C
  C11      1.0000 0.39802  0.16894  0.45921  Biso   1.000  C
  H4       1.0000 0.25523  0.96491  0.46719  Biso   1.000  H
  C12      1.0000 0.79471  0.59329  0.42458  Biso   1.000  C
  H5       1.0000 0.73197  0.50849  0.46841  Biso   1.000  H
  H6       1.0000 0.86093  0.66481  0.46920  Biso   1.000  H
  N3       1.0000 0.98199  0.32677  0.46387  Biso   1.000  N
  H7       1.0000 0.97957  0.50211  0.46359  Biso   1.000  H
  C13      1.0000 0.40668  0.20135  0.42458  Biso   1.000  C
  H8       1.0000 0.49144  0.22346  0.46841  Biso   1.000  H
  H9       1.0000 0.33523  0.19614  0.46920  Biso   1.000  H
  C14      1.0000 0.86809  0.74005  0.40876  Biso   1.000  C
  H10      1.0000 0.70386  0.53325  0.41471  Biso   1.000  H
  H11      1.0000 0.85260  0.54930  0.42170  Biso   1.000  H
  C15      1.0000 0.83110  0.22911  0.45921  Biso   1.000  C
  H12      1.0000 0.03509  0.29032  0.46719  Biso   1.000  H
  C16      1.0000 0.25995  0.12803  0.40876  Biso   1.000  C
  H13      1.0000 0.46679  0.17064  0.41471  Biso   1.000  H
  H14      1.0000 0.45064  0.30326  0.42170  Biso   1.000  H
  C17      1.0000 0.83557  0.73133  0.37413  Biso   1.000  C
  H15      1.0000 0.83728  0.80009  0.41863  Biso   1.000  H
  H16      1.0000 0.96997  0.78404  0.41164  Biso   1.000  H
  C18      1.0000 0.79859  0.20531  0.42458  Biso   1.000  C
  H17      1.0000 0.77647  0.26801  0.46841  Biso   1.000  H
  H18      1.0000 0.80386  0.13910  0.46920  Biso   1.000  H
  C19      1.0000 0.26866  0.10422  0.37413  Biso   1.000  C
  H19      1.0000 0.19988  0.03717  0.41863  Biso   1.000  H
  H20      1.0000 0.21602  0.18594  0.41164  Biso   1.000  H
  N4       1.0000 0.68462  0.67809  0.36945  Biso   1.000  N
  H21      1.0000 0.89015  0.82485  0.36493  Biso   1.000  H
  H22      1.0000 0.86279  0.66853  0.36412  Biso   1.000  H
  C20      1.0000 0.87199  0.13198  0.40876  Biso   1.000  C
  H23      1.0000 0.82938  0.29617  0.41471  Biso   1.000  H
  H24      1.0000 0.69674  0.14739  0.42170  Biso   1.000  H
  N5       1.0000 0.32189  0.00656  0.36945  Biso   1.000  N
  H25      1.0000 0.17513  0.06533  0.36493  Biso   1.000  H
  H26      1.0000 0.33142  0.19423  0.36412  Biso   1.000  H
  C21      1.0000 0.62601  0.75800  0.36950  Biso   1.000  C
  H27      1.0000 0.63154  0.58851  0.36613  Biso   1.000  H
  C22      1.0000 0.89574  0.16440  0.37413  Biso   1.000  C
  H28      1.0000 0.96281  0.16270  0.41863  Biso   1.000  H
  H29      1.0000 0.81404  0.03007  0.41164  Biso   1.000  H
  C23      1.0000 0.24193  0.86799  0.36950  Biso   1.000  C
  H30      1.0000 0.41144  0.04301  0.36613  Biso   1.000  H
  C24      1.0000 0.48126  0.71072  0.36920  Biso   1.000  C
  H31      1.0000 0.68710  0.85588  0.36973  Biso   1.000  H
  N6       1.0000 0.99347  0.31530  0.36945  Biso   1.000  N
  H32      1.0000 0.93466  0.10988  0.36493  Biso   1.000  H
  H33      1.0000 0.80576  0.13719  0.36412  Biso   1.000  H
  C25      1.0000 0.28928  0.77054  0.36920  Biso   1.000  C
  H34      1.0000 0.14412  0.83122  0.36973  Biso   1.000  H
  C26      1.0000 0.37891  0.56088  0.36938  Biso   1.000  C
  C27      1.0000 0.43921  0.81805  0.36938  Biso   1.000  C
  C28      1.0000 0.13194  0.37395  0.36950  Biso   1.000  C
  H35      1.0000 0.95699  0.36843  0.36613  Biso   1.000  H
  C29      1.0000 0.18200  0.62113  0.36938  Biso   1.000  C
  O4       1.0000 0.41857  0.47013  0.36973  Biso   1.000  O
  C30      1.0000 0.22944  0.51869  0.36920  Biso   1.000  C
  O5       1.0000 0.52990  0.94844  0.36973  Biso   1.000  O
  H36      1.0000 0.16881  0.31296  0.36973  Biso   1.000  H
  O6       1.0000 0.05151  0.58139  0.36973  Biso   1.000  O
  C31      1.0000 0.46537  0.42475  0.53615  Biso   1.000  C
  N7       1.0000 0.32685  0.34484  0.53613  Biso   1.000  N
  C32      1.0000 0.56278  0.37736  0.53585  Biso   1.000  C
  H37      1.0000 0.50210  0.52252  0.53641  Biso   1.000  H
  H38      1.0000 0.29028  0.25515  0.53281  Biso   1.000  H
  C33      1.0000 0.22908  0.39797  0.54079  Biso   1.000  C
  C34      1.0000 0.51529  0.22752  0.53604  Biso   1.000  C
  C35      1.0000 0.71216  0.48469  0.53604  Biso   1.000  C
  H39      1.0000 0.26801  0.49149  0.53159  Biso   1.000  H
  H40      1.0000 0.13905  0.33517  0.53080  Biso   1.000  H
  C36      1.0000 0.20528  0.40668  0.57542  Biso   1.000  C
  O7       1.0000 0.38487  0.13677  0.53638  Biso   1.000  O
  C37      1.0000 0.62263  0.18544  0.53585  Biso   1.000  C
  O8       1.0000 0.75186  0.61508  0.53638  Biso   1.000  O
  C38      1.0000 0.81458  0.43718  0.53585  Biso   1.000  C
  H41      1.0000 0.29618  0.46683  0.58529  Biso   1.000  H
  H42      1.0000 0.14739  0.45068  0.57830  Biso   1.000  H
  C39      1.0000 0.13190  0.25993  0.59124  Biso   1.000  C
  C40      1.0000 0.77245  0.28777  0.53604  Biso   1.000  C
  C41      1.0000 0.57533  0.04059  0.53615  Biso   1.000  C
  C42      1.0000 0.95944  0.53474  0.53615  Biso   1.000  C
  C43      1.0000 0.16442  0.26864  0.62587  Biso   1.000  C
  H43      1.0000 0.16271  0.19989  0.58137  Biso   1.000  H
  H44      1.0000 0.03002  0.21594  0.58836  Biso   1.000  H
  O9       1.0000 0.86325  0.24813  0.53638  Biso   1.000  O
  N8       1.0000 0.65520  0.98204  0.53613  Biso   1.000  N
  H45      1.0000 0.47747  0.97960  0.53641  Biso   1.000  H
  N9       1.0000 0.01799  0.67320  0.53613  Biso   1.000  N
  H46      1.0000 0.02042  0.49786  0.53641  Biso   1.000  H
  N10      1.0000 0.31537  0.32188  0.63055  Biso   1.000  N
  H47      1.0000 0.10984  0.17513  0.63507  Biso   1.000  H
  H48      1.0000 0.13719  0.33145  0.63588  Biso   1.000  H
  H49      1.0000 0.74476  0.03507  0.53281  Biso   1.000  H
  C44      1.0000 0.60202  0.83114  0.54079  Biso   1.000  C
  H50      1.0000 0.96489  0.70965  0.53281  Biso   1.000  H
  C45      1.0000 0.16888  0.77086  0.54079  Biso   1.000  C
  H51      1.0000 0.36844  0.41147  0.63387  Biso   1.000  H
  C46      1.0000 0.37398  0.24197  0.63050  Biso   1.000  C
  H52      1.0000 0.50854  0.77652  0.53159  Biso   1.000  H
  H53      1.0000 0.66481  0.80394  0.53080  Biso   1.000  H
  C47      1.0000 0.59331  0.79862  0.57542  Biso   1.000  C
  H54      1.0000 0.22352  0.73197  0.53159  Biso   1.000  H
  H55      1.0000 0.19613  0.86087  0.53080  Biso   1.000  H
  C48      1.0000 0.20140  0.79467  0.57542  Biso   1.000  C
  C49      1.0000 0.51873  0.28926  0.63080  Biso   1.000  C
  H56      1.0000 0.31295  0.14420  0.63027  Biso   1.000  H
  H57      1.0000 0.53326  0.82944  0.58529  Biso   1.000  H
  H58      1.0000 0.54935  0.69671  0.57830  Biso   1.000  H
  C50      1.0000 0.74004  0.87195  0.59124  Biso   1.000  C
  H59      1.0000 0.17060  0.70381  0.58529  Biso   1.000  H
  H60      1.0000 0.30325  0.85258  0.57830  Biso   1.000  H
  C51      1.0000 0.12805  0.86810  0.59124  Biso   1.000  C
  C52      1.0000 0.62113  0.43920  0.63062  Biso   1.000  C
  C53      1.0000 0.56078  0.18193  0.63062  Biso   1.000  C
  C54      1.0000 0.73133  0.89575  0.62587  Biso   1.000  C
  H61      1.0000 0.80016  0.96291  0.58137  Biso   1.000  H
  H62      1.0000 0.78397  0.81403  0.58836  Biso   1.000  H
  C55      1.0000 0.10424  0.83558  0.62587  Biso   1.000  C
  H63      1.0000 0.03717  0.83728  0.58137  Biso   1.000  H
  H64      1.0000 0.18600  0.97001  0.58836  Biso   1.000  H
  O10      1.0000 0.58142  0.52985  0.63027  Biso   1.000  O
  C56      1.0000 0.77055  0.48128  0.63080  Biso   1.000  C
  O11      1.0000 0.47009  0.05154  0.63027  Biso   1.000  O
  C57      1.0000 0.71070  0.22943  0.63080  Biso   1.000  C
  N11      1.0000 0.67815  0.99352  0.63055  Biso   1.000  N
  H65      1.0000 0.82486  0.93465  0.63507  Biso   1.000  H
  H66      1.0000 0.66856  0.80574  0.63588  Biso   1.000  H
  N12      1.0000 0.00652  0.68468  0.63055  Biso   1.000  N
  H67      1.0000 0.06538  0.89020  0.63507  Biso   1.000  H
  H68      1.0000 0.19423  0.86278  0.63588  Biso   1.000  H
  C58      1.0000 0.81799  0.37884  0.63062  Biso   1.000  C
  C59      1.0000 0.86804  0.62602  0.63050  Biso   1.000  C
  C60      1.0000 0.75806  0.13198  0.63050  Biso   1.000  C
  H69      1.0000 0.58855  0.95696  0.63387  Biso   1.000  H
  H70      1.0000 0.04300  0.63155  0.63387  Biso   1.000  H
  O12      1.0000 0.94848  0.41859  0.63027  Biso   1.000  O
  H71      1.0000 0.83118  0.68702  0.63027  Biso   1.000  H
  H72      1.0000 0.85587  0.16875  0.63027  Biso   1.000  H
  N13      1.0000 0.64868  0.98850  0.29721  Biso   1.000  N
  C61      1.0000 0.70728  0.90859  0.29716  Biso   1.000  C
  C62      1.0000 0.49778  0.93536  0.29255  Biso   1.000  C
  H73      1.0000 0.70175  0.07808  0.30053  Biso   1.000  H
  C63      1.0000 0.85204  0.95587  0.29746  Biso   1.000  C
  C64      1.0000 0.85209  0.95598  0.29746  Biso   1.000  C
  H74      1.0000 0.64625  0.81082  0.29693  Biso   1.000  H
  H75      1.0000 0.44320  0.84185  0.30173  Biso   1.000  H
  C65      1.0000 0.46526  0.92665  0.25790  Biso   1.000  C
  H76      1.0000 0.47050  0.99806  0.30254  Biso   1.000  H
  H77      1.0000 0.47056  0.99817  0.30254  Biso   1.000  H
  C66      1.0000 0.89414  0.84865  0.29728  Biso   1.000  C
  C67      1.0000 0.95444  0.10582  0.29728  Biso   1.000  C
  H78      1.0000 0.49602  0.86650  0.24803  Biso   1.000  H
  H79      1.0000 0.36338  0.88266  0.25504  Biso   1.000  H
  C68      1.0000 0.53858  0.07330  0.24210  Biso   1.000  C
  C69      1.0000 0.53864  0.07341  0.24210  Biso   1.000  C
  O13      1.0000 0.80345  0.71826  0.29693  Biso   1.000  O
  C70      1.0000 0.04406  0.89615  0.29746  Biso   1.000  C
  O14      1.0000 0.91478  0.19657  0.29693  Biso   1.000  O
  C71      1.0000 0.10386  0.14790  0.29746  Biso   1.000  C
  C72      1.0000 0.56244  0.06469  0.20745  Biso   1.000  C
  H80      1.0000 0.62949  0.13345  0.25197  Biso   1.000  H
  H81      1.0000 0.48070  0.11729  0.24496  Biso   1.000  H
  H82      1.0000 0.48075  0.11740  0.24496  Biso   1.000  H
  C73      1.0000 0.09137  0.79860  0.29716  Biso   1.000  C
  C74      1.0000 0.15130  0.04546  0.29728  Biso   1.000  C
  C75      1.0000 0.15135  0.04556  0.29728  Biso   1.000  C
  C76      1.0000 0.20140  0.29274  0.29716  Biso   1.000  C
  N14      1.0000 0.66015  0.01145  0.20279  Biso   1.000  N
  H83      1.0000 0.47241  0.00189  0.19746  Biso   1.000  H
  H84      1.0000 0.60137  0.15821  0.19827  Biso   1.000  H
  N15      1.0000 0.01146  0.66013  0.29721  Biso   1.000  N
  H85      1.0000 0.18917  0.83537  0.29693  Biso   1.000  H
  H86      1.0000 0.18923  0.83547  0.29693  Biso   1.000  H
  O15      1.0000 0.28179  0.08520  0.29693  Biso   1.000  O
  N16      1.0000 0.33983  0.35130  0.29721  Biso   1.000  N
  H87      1.0000 0.16454  0.35374  0.29693  Biso   1.000  H
  H88      1.0000 0.62364  0.92187  0.19947  Biso   1.000  H
  C77      1.0000 0.79867  0.09137  0.20284  Biso   1.000  C
  H89      1.0000 0.92191  0.62368  0.30053  Biso   1.000  H
  C78      1.0000 0.06464  0.56237  0.29255  Biso   1.000  C
  C79      1.0000 0.06469  0.56247  0.29255  Biso   1.000  C
  H90      1.0000 0.37630  0.29816  0.30053  Biso   1.000  H
  C80      1.0000 0.43755  0.50219  0.29255  Biso   1.000  C
  H91      1.0000 0.37636  0.29827  0.30053  Biso   1.000  H
  C81      1.0000 0.89614  0.04408  0.20254  Biso   1.000  C
  H92      1.0000 0.83541  0.18913  0.20307  Biso   1.000  H
  C82      1.0000 0.07335  0.53856  0.25790  Biso   1.000  C
  H93      1.0000 0.15822  0.60137  0.30173  Biso   1.000  H
  H94      1.0000 0.00192  0.47246  0.30254  Biso   1.000  H
  C83      1.0000 0.07340  0.53867  0.25790  Biso   1.000  C
  H95      1.0000 0.39869  0.55682  0.30173  Biso   1.000  H
  H96      1.0000 0.52754  0.52940  0.30254  Biso   1.000  H
  C84      1.0000 0.46136  0.53471  0.25790  Biso   1.000  C
  C85      1.0000 0.84859  0.89413  0.20272  Biso   1.000  C
  C86      1.0000 0.04546  0.15130  0.20272  Biso   1.000  C
  C87      1.0000 0.04552  0.15141  0.20272  Biso   1.000  C
  C88      1.0000 0.92662  0.46524  0.24210  Biso   1.000  C
  H97      1.0000 0.13346  0.62953  0.24803  Biso   1.000  H
  H98      1.0000 0.11733  0.48075  0.25504  Biso   1.000  H
  C89      1.0000 0.53476  0.46139  0.24210  Biso   1.000  C
  H99      1.0000 0.37048  0.50389  0.24803  Biso   1.000  H
  H100     1.0000 0.51931  0.63662  0.25504  Biso   1.000  H
  C90      1.0000 0.95594  0.85205  0.20254  Biso   1.000  C
  O16      1.0000 0.71824  0.80349  0.20307  Biso   1.000  O
  O17      1.0000 0.08522  0.28180  0.20307  Biso   1.000  O
  C91      1.0000 0.14794  0.10390  0.20254  Biso   1.000  C
  C92      1.0000 0.93533  0.49776  0.20745  Biso   1.000  C
  H101     1.0000 0.86656  0.49606  0.25197  Biso   1.000  H
  H102     1.0000 0.88266  0.36333  0.24496  Biso   1.000  H
  C93      1.0000 0.50225  0.43758  0.20745  Biso   1.000  C
  H103     1.0000 0.50391  0.37042  0.25197  Biso   1.000  H
  H104     1.0000 0.63655  0.51920  0.24496  Biso   1.000  H
  H105     1.0000 0.63661  0.51930  0.24496  Biso   1.000  H
  C94      1.0000 0.90869  0.70732  0.20284  Biso   1.000  C
  C95      1.0000 0.10581  0.95449  0.20272  Biso   1.000  C
  C96      1.0000 0.29274  0.20135  0.20284  Biso   1.000  C
  N17      1.0000 0.98851  0.64866  0.20279  Biso   1.000  N
  H106     1.0000 0.84185  0.44313  0.19827  Biso   1.000  H
  H107     1.0000 0.99811  0.47055  0.19746  Biso   1.000  H
  N18      1.0000 0.35130  0.33982  0.20279  Biso   1.000  N
  H108     1.0000 0.55688  0.39869  0.19827  Biso   1.000  H
  H109     1.0000 0.52949  0.52759  0.19746  Biso   1.000  H
  H110     1.0000 0.81083  0.64632  0.20307  Biso   1.000  H
  O18      1.0000 0.19656  0.91475  0.20307  Biso   1.000  O
  H111     1.0000 0.35378  0.16458  0.20307  Biso   1.000  H
  H112     1.0000 0.07812  0.70179  0.19947  Biso   1.000  H
  H113     1.0000 0.29826  0.37637  0.19947  Biso   1.000  H
  N19      1.0000 0.35130  0.01145  0.70279  Biso   1.000  N
  C97      1.0000 0.29269  0.09137  0.70284  Biso   1.000  C
  H114     1.0000 0.29823  0.92187  0.69947  Biso   1.000  H
  C98      1.0000 0.50225  0.06469  0.70745  Biso   1.000  C
  C99      1.0000 0.14794  0.04408  0.70254  Biso   1.000  C
  H115     1.0000 0.35372  0.18913  0.70307  Biso   1.000  H
  H116     1.0000 0.52947  0.00189  0.69746  Biso   1.000  H
  C100     1.0000 0.53472  0.07330  0.74210  Biso   1.000  C
  H117     1.0000 0.55683  0.15821  0.69827  Biso   1.000  H
  C101     1.0000 0.53477  0.07341  0.74210  Biso   1.000  C
  C102     1.0000 0.04554  0.89413  0.70272  Biso   1.000  C
  C103     1.0000 0.10584  0.15130  0.70272  Biso   1.000  C
  C104     1.0000 0.10589  0.15141  0.70272  Biso   1.000  C
  C105     1.0000 0.46139  0.92665  0.75790  Biso   1.000  C
  H118     1.0000 0.50396  0.13345  0.75197  Biso   1.000  H
  H119     1.0000 0.63660  0.11729  0.74496  Biso   1.000  H
  H120     1.0000 0.63665  0.11740  0.74496  Biso   1.000  H
  O19      1.0000 0.08525  0.80349  0.70307  Biso   1.000  O
  C106     1.0000 0.89612  0.85205  0.70254  Biso   1.000  C
  C107     1.0000 0.95596  0.10390  0.70254  Biso   1.000  C
  O20      1.0000 0.19658  0.28180  0.70307  Biso   1.000  O
  H121     1.0000 0.37049  0.86650  0.74803  Biso   1.000  H
  H122     1.0000 0.51928  0.88266  0.75504  Biso   1.000  H
  C108     1.0000 0.43759  0.93536  0.79255  Biso   1.000  C
  C109     1.0000 0.84868  0.95449  0.70272  Biso   1.000  C
  C110     1.0000 0.79862  0.70732  0.70284  Biso   1.000  C
  C111     1.0000 0.90861  0.20135  0.70284  Biso   1.000  C
  N20      1.0000 0.33982  0.98850  0.79721  Biso   1.000  N
  H123     1.0000 0.39865  0.84185  0.80173  Biso   1.000  H
  H124     1.0000 0.52756  0.99806  0.80254  Biso   1.000  H
  H125     1.0000 0.52761  0.99817  0.80254  Biso   1.000  H
  O21      1.0000 0.71819  0.91475  0.70307  Biso   1.000  O
  N21      1.0000 0.66015  0.64866  0.70279  Biso   1.000  N
  H126     1.0000 0.83549  0.64632  0.70307  Biso   1.000  H
  N22      1.0000 0.98852  0.33982  0.70279  Biso   1.000  N
  H127     1.0000 0.81080  0.16458  0.70307  Biso   1.000  H
  C112     1.0000 0.20130  0.90859  0.79716  Biso   1.000  C
  H128     1.0000 0.37633  0.07808  0.80053  Biso   1.000  H
  H129     1.0000 0.62367  0.70179  0.69947  Biso   1.000  H
  C113     1.0000 0.56242  0.49776  0.70745  Biso   1.000  C
  C114     1.0000 0.93534  0.43758  0.70745  Biso   1.000  C
  H130     1.0000 0.07812  0.37637  0.69947  Biso   1.000  H
  H131     1.0000 0.16457  0.81082  0.79693  Biso   1.000  H
  C115     1.0000 0.10383  0.95587  0.79746  Biso   1.000  C
  C116     1.0000 0.10389  0.95598  0.79746  Biso   1.000  C
  H132     1.0000 0.60128  0.44313  0.69827  Biso   1.000  H
  H133     1.0000 0.47244  0.47055  0.69746  Biso   1.000  H
  C117     1.0000 0.53862  0.46524  0.74210  Biso   1.000  C
  H134     1.0000 0.84181  0.39869  0.69827  Biso   1.000  H
  H135     1.0000 0.99811  0.52759  0.69746  Biso   1.000  H
  C118     1.0000 0.92663  0.46139  0.74210  Biso   1.000  C
  C119     1.0000 0.95451  0.84865  0.79728  Biso   1.000  C
  C120     1.0000 0.15138  0.10582  0.79728  Biso   1.000  C
  C121     1.0000 0.46521  0.53856  0.75790  Biso   1.000  C
  H136     1.0000 0.62949  0.49606  0.75197  Biso   1.000  H
  H137     1.0000 0.48067  0.36333  0.74496  Biso   1.000  H
  C122     1.0000 0.46527  0.53867  0.75790  Biso   1.000  C
  H138     1.0000 0.86651  0.37042  0.75197  Biso   1.000  H
  H139     1.0000 0.88264  0.51920  0.74496  Biso   1.000  H
  H140     1.0000 0.88270  0.51930  0.74496  Biso   1.000  H
  C123     1.0000 0.07336  0.53471  0.75790  Biso   1.000  C
  C124     1.0000 0.85209  0.89615  0.79746  Biso   1.000  C
  O22      1.0000 0.91481  0.71826  0.79693  Biso   1.000  O
  C125     1.0000 0.04404  0.14790  0.79746  Biso   1.000  C
  O23      1.0000 0.28179  0.19657  0.79693  Biso   1.000  O
  C126     1.0000 0.49773  0.56237  0.79255  Biso   1.000  C
  H141     1.0000 0.49606  0.62953  0.74803  Biso   1.000  H
  H142     1.0000 0.36342  0.48075  0.75504  Biso   1.000  H
  C127     1.0000 0.49778  0.56247  0.79255  Biso   1.000  C
  C128     1.0000 0.06464  0.50219  0.79255  Biso   1.000  C
  H143     1.0000 0.13341  0.50389  0.74803  Biso   1.000  H
  H144     1.0000 0.11732  0.63662  0.75504  Biso   1.000  H
  C129     1.0000 0.70723  0.79860  0.79716  Biso   1.000  C
  C130     1.0000 0.89416  0.04546  0.79728  Biso   1.000  C
  C131     1.0000 0.89422  0.04556  0.79728  Biso   1.000  C
  C132     1.0000 0.09134  0.29274  0.79716  Biso   1.000  C
  N23      1.0000 0.64867  0.66013  0.79721  Biso   1.000  N
  H145     1.0000 0.44315  0.60137  0.80173  Biso   1.000  H
  H146     1.0000 0.47054  0.47246  0.80254  Biso   1.000  H
  N24      1.0000 0.01147  0.35130  0.79721  Biso   1.000  N
  H147     1.0000 0.15812  0.55682  0.80173  Biso   1.000  H
  H148     1.0000 0.00186  0.52940  0.80254  Biso   1.000  H
  H149     1.0000 0.64619  0.83537  0.79693  Biso   1.000  H
  H150     1.0000 0.64625  0.83547  0.79693  Biso   1.000  H
  O24      1.0000 0.80341  0.08520  0.79693  Biso   1.000  O
  H151     1.0000 0.18920  0.35374  0.79693  Biso   1.000  H
  H152     1.0000 0.70177  0.62368  0.80053  Biso   1.000  H
  H153     1.0000 0.92186  0.29816  0.80053  Biso   1.000  H
  H154     1.0000 0.92191  0.29827  0.80053  Biso   1.000  H
  N25      1.0000 0.67816  0.68468  0.13055  Biso   1.000  N
  C133     1.0000 0.75798  0.62602  0.13050  Biso   1.000  C
  H155     1.0000 0.58855  0.63155  0.13387  Biso   1.000  H
  C134     1.0000 0.73134  0.83558  0.12587  Biso   1.000  C
  C135     1.0000 0.71073  0.48128  0.13080  Biso   1.000  C
  H156     1.0000 0.85584  0.68702  0.13027  Biso   1.000  H
  H157     1.0000 0.82482  0.89020  0.13507  Biso   1.000  H
  H158     1.0000 0.66855  0.86278  0.13588  Biso   1.000  H
  C136     1.0000 0.74005  0.86810  0.09124  Biso   1.000  C
  C137     1.0000 0.56086  0.37884  0.13062  Biso   1.000  C
  C138     1.0000 0.81807  0.43920  0.13062  Biso   1.000  C
  C139     1.0000 0.59327  0.79467  0.07542  Biso   1.000  C
  H159     1.0000 0.80011  0.83728  0.08137  Biso   1.000  H
  H160     1.0000 0.78401  0.97001  0.08836  Biso   1.000  H
  O25      1.0000 0.47011  0.41859  0.13027  Biso   1.000  O
  C140     1.0000 0.51873  0.22943  0.13080  Biso   1.000  C
  O26      1.0000 0.94843  0.52985  0.13027  Biso   1.000  O
  C141     1.0000 0.77053  0.28926  0.13080  Biso   1.000  C
  C142     1.0000 0.60198  0.77086  0.04079  Biso   1.000  C
  H161     1.0000 0.53320  0.70381  0.08529  Biso   1.000  H
  H162     1.0000 0.54934  0.85258  0.07830  Biso   1.000  H
  C143     1.0000 0.62115  0.18193  0.13062  Biso   1.000  C
  C144     1.0000 0.37392  0.13198  0.13050  Biso   1.000  C
  C145     1.0000 0.86799  0.24197  0.13050  Biso   1.000  C
  N26      1.0000 0.65521  0.67320  0.03613  Biso   1.000  N
  H163     1.0000 0.50845  0.73197  0.03159  Biso   1.000  H
  H164     1.0000 0.66474  0.86087  0.03080  Biso   1.000  H
  O27      1.0000 0.58145  0.05154  0.13027  Biso   1.000  O
  H165     1.0000 0.31289  0.16875  0.13027  Biso   1.000  H
  N27      1.0000 0.31537  0.99352  0.13055  Biso   1.000  N
  H166     1.0000 0.83126  0.14420  0.13027  Biso   1.000  H
  N28      1.0000 0.00652  0.32188  0.13055  Biso   1.000  N
  H167     1.0000 0.74476  0.70965  0.03281  Biso   1.000  H
  C146     1.0000 0.57530  0.53474  0.03615  Biso   1.000  C
  H168     1.0000 0.36841  0.95696  0.13387  Biso   1.000  H
  C147     1.0000 0.16442  0.89575  0.12587  Biso   1.000  C
  H169     1.0000 0.04302  0.41147  0.13387  Biso   1.000  H
  C148     1.0000 0.10423  0.26864  0.12587  Biso   1.000  C
  C149     1.0000 0.62260  0.43718  0.03585  Biso   1.000  C
  H170     1.0000 0.47744  0.49786  0.03641  Biso   1.000  H
  H171     1.0000 0.10979  0.93465  0.13507  Biso   1.000  H
  H172     1.0000 0.13718  0.80574  0.13588  Biso   1.000  H
  C150     1.0000 0.13191  0.87195  0.09124  Biso   1.000  C
  H173     1.0000 0.06529  0.17513  0.13507  Biso   1.000  H
  H174     1.0000 0.19425  0.33145  0.13588  Biso   1.000  H
  C151     1.0000 0.12803  0.25993  0.09124  Biso   1.000  C
  C152     1.0000 0.77253  0.48469  0.03604  Biso   1.000  C
  C153     1.0000 0.51532  0.28777  0.03604  Biso   1.000  C
  C154     1.0000 0.20531  0.79862  0.07542  Biso   1.000  C
  H175     1.0000 0.16276  0.96291  0.08137  Biso   1.000  H
  H176     1.0000 0.03006  0.81403  0.08836  Biso   1.000  H
  C155     1.0000 0.20141  0.40668  0.07542  Biso   1.000  C
  H177     1.0000 0.03718  0.19989  0.08137  Biso   1.000  H
  H178     1.0000 0.18592  0.21594  0.08836  Biso   1.000  H
  O28      1.0000 0.86322  0.61508  0.03638  Biso   1.000  O
  C156     1.0000 0.81457  0.37736  0.03585  Biso   1.000  C
  C157     1.0000 0.56281  0.18544  0.03585  Biso   1.000  C
  O29      1.0000 0.38488  0.24813  0.03638  Biso   1.000  O
  C158     1.0000 0.22912  0.83114  0.04079  Biso   1.000  C
  H179     1.0000 0.29619  0.82944  0.08529  Biso   1.000  H
  H180     1.0000 0.14736  0.69671  0.07830  Biso   1.000  H
  C159     1.0000 0.16889  0.39797  0.04079  Biso   1.000  C
  H181     1.0000 0.17065  0.46683  0.08529  Biso   1.000  H
  H182     1.0000 0.30329  0.45068  0.07830  Biso   1.000  H
  C160     1.0000 0.95938  0.42475  0.03615  Biso   1.000  C
  C161     1.0000 0.71223  0.22752  0.03604  Biso   1.000  C
  C162     1.0000 0.46526  0.04059  0.03615  Biso   1.000  C
  N29      1.0000 0.32684  0.98204  0.03613  Biso   1.000  N
  H183     1.0000 0.26798  0.77652  0.03159  Biso   1.000  H
  H184     1.0000 0.13913  0.80394  0.03080  Biso   1.000  H
  N30      1.0000 0.01799  0.34484  0.03613  Biso   1.000  N
  H185     1.0000 0.22347  0.49149  0.03159  Biso   1.000  H
  H186     1.0000 0.19611  0.33517  0.03080  Biso   1.000  H
  H187     1.0000 0.02042  0.52252  0.03641  Biso   1.000  H
  O30      1.0000 0.75189  0.13677  0.03638  Biso   1.000  O
  H188     1.0000 0.50213  0.97960  0.03641  Biso   1.000  H
  H189     1.0000 0.29031  0.03507  0.03281  Biso   1.000  H
  H190     1.0000 0.96486  0.25515  0.03281  Biso   1.000  H
  C163     1.0000 0.48126  0.77054  0.86920  Biso   1.000  C
  C164     1.0000 0.43913  0.62113  0.86938  Biso   1.000  C
  C165     1.0000 0.37884  0.81805  0.86938  Biso   1.000  C
  C166     1.0000 0.62606  0.86799  0.86950  Biso   1.000  C
  C167     1.0000 0.28926  0.51869  0.86920  Biso   1.000  C
  O31      1.0000 0.52988  0.58139  0.86973  Biso   1.000  O
  C168     1.0000 0.22946  0.71072  0.86920  Biso   1.000  C
  O32      1.0000 0.41854  0.94844  0.86973  Biso   1.000  O
  H191     1.0000 0.68710  0.83122  0.86973  Biso   1.000  H
  N31      1.0000 0.68467  0.00656  0.86945  Biso   1.000  N
  C169     1.0000 0.24201  0.37395  0.86950  Biso   1.000  C
  C170     1.0000 0.18197  0.56088  0.86938  Biso   1.000  C
  C171     1.0000 0.13199  0.75800  0.86950  Biso   1.000  C
  H192     1.0000 0.63157  0.04301  0.86613  Biso   1.000  H
  C172     1.0000 0.83556  0.10422  0.87413  Biso   1.000  C
  N32      1.0000 0.32183  0.31530  0.86945  Biso   1.000  N
  H193     1.0000 0.14415  0.31296  0.86973  Biso   1.000  H
  O33      1.0000 0.05156  0.47013  0.86973  Biso   1.000  O
  H194     1.0000 0.16878  0.85588  0.86973  Biso   1.000  H
  N33      1.0000 0.99347  0.67809  0.86945  Biso   1.000  N
  H195     1.0000 0.89020  0.06533  0.86493  Biso   1.000  H
  H196     1.0000 0.86281  0.19423  0.86412  Biso   1.000  H
  C173     1.0000 0.86808  0.12803  0.90876  Biso   1.000  C
  H197     1.0000 0.41144  0.36843  0.86613  Biso   1.000  H
  C174     1.0000 0.26865  0.16440  0.87413  Biso   1.000  C
  H198     1.0000 0.95696  0.58851  0.86613  Biso   1.000  H
  C175     1.0000 0.89576  0.73133  0.87413  Biso   1.000  C
  C176     1.0000 0.79468  0.20135  0.92458  Biso   1.000  C
  H199     1.0000 0.83728  0.03717  0.91863  Biso   1.000  H
  H200     1.0000 0.96993  0.18594  0.91164  Biso   1.000  H
  H201     1.0000 0.17522  0.10988  0.86493  Biso   1.000  H
  H202     1.0000 0.33143  0.13719  0.86412  Biso   1.000  H
  C177     1.0000 0.25999  0.13198  0.90876  Biso   1.000  C
  H203     1.0000 0.93469  0.82485  0.86493  Biso   1.000  H
  H204     1.0000 0.80573  0.66853  0.86412  Biso   1.000  H
  C178     1.0000 0.87196  0.74005  0.90876  Biso   1.000  C
  C179     1.0000 0.77092  0.16894  0.95921  Biso   1.000  C
  H205     1.0000 0.70386  0.17064  0.91471  Biso   1.000  H
  H206     1.0000 0.85263  0.30326  0.92170  Biso   1.000  H
  C180     1.0000 0.40672  0.20531  0.92458  Biso   1.000  C
  H207     1.0000 0.19988  0.16270  0.91863  Biso   1.000  H
  H208     1.0000 0.21603  0.03007  0.91164  Biso   1.000  H
  C181     1.0000 0.79858  0.59329  0.92458  Biso   1.000  C
  H209     1.0000 0.96281  0.80009  0.91863  Biso   1.000  H
  H210     1.0000 0.81407  0.78404  0.91164  Biso   1.000  H
  N34      1.0000 0.67320  0.01804  0.96387  Biso   1.000  N
  H211     1.0000 0.73201  0.22346  0.96841  Biso   1.000  H
  H212     1.0000 0.86091  0.19614  0.96920  Biso   1.000  H
  C182     1.0000 0.39801  0.22911  0.95921  Biso   1.000  C
  H213     1.0000 0.46678  0.29617  0.91471  Biso   1.000  H
  H214     1.0000 0.45065  0.14739  0.92170  Biso   1.000  H
  C183     1.0000 0.83110  0.60200  0.95921  Biso   1.000  C
  H215     1.0000 0.82939  0.53325  0.91471  Biso   1.000  H
  H216     1.0000 0.69670  0.54930  0.92170  Biso   1.000  H
  C184     1.0000 0.53472  0.95938  0.96385  Biso   1.000  C
  H217     1.0000 0.70968  0.96491  0.96719  Biso   1.000  H
  N35      1.0000 0.34478  0.32677  0.96387  Biso   1.000  N
  H218     1.0000 0.49154  0.26801  0.96841  Biso   1.000  H
  H219     1.0000 0.33524  0.13910  0.96920  Biso   1.000  H
  N36      1.0000 0.98205  0.65524  0.96387  Biso   1.000  N
  H220     1.0000 0.77652  0.50849  0.96841  Biso   1.000  H
  H221     1.0000 0.80387  0.66481  0.96920  Biso   1.000  H
  C185     1.0000 0.43723  0.81465  0.96415  Biso   1.000  C
  H222     1.0000 0.49786  0.02038  0.96359  Biso   1.000  H
  H223     1.0000 0.25523  0.29032  0.96719  Biso   1.000  H
  C186     1.0000 0.42474  0.46534  0.96385  Biso   1.000  C
  C187     1.0000 0.04066  0.57533  0.96385  Biso   1.000  C
  H224     1.0000 0.03512  0.74483  0.96719  Biso   1.000  H
  C188     1.0000 0.48467  0.71220  0.96396  Biso   1.000  C
  C189     1.0000 0.28776  0.77246  0.96396  Biso   1.000  C
  C190     1.0000 0.37738  0.56279  0.96415  Biso   1.000  C
  H225     1.0000 0.52255  0.50211  0.96359  Biso   1.000  H
  C191     1.0000 0.18541  0.62262  0.96415  Biso   1.000  C
  H226     1.0000 0.97957  0.47746  0.96359  Biso   1.000  H
  O34      1.0000 0.61516  0.75195  0.96362  Biso   1.000  O
  O35      1.0000 0.24810  0.86321  0.96362  Biso   1.000  O
  C192     1.0000 0.22746  0.51529  0.96396  Biso   1.000  C
  O36      1.0000 0.13677  0.38490  0.96362  Biso   1.000  O
  Ne1      1.0000 0.66667  0.33333  0.08333  Biso   1.000  Ne
  He1      1.0000 0.77453  0.47523  0.08487  Biso   1.000  He
  He2      1.0000 0.63320  0.19365  0.08181  Biso   1.000  He
  He3      1.0000 0.55489  0.36867  0.08173  Biso   1.000  He
  Ar1      1.0000 0.66667  0.33334  0.08333  Biso   1.000  Ar
  Ne2      1.0000 0.33333  0.66667  0.41667  Biso   1.000  Ne
  He4      1.0000 0.44116  0.80848  0.41821  Biso   1.000  He
  He5      1.0000 0.29988  0.52701  0.41515  Biso   1.000  He
  He6      1.0000 0.22148  0.70206  0.41507  Biso   1.000  He
  Ar2      1.0000 0.33333  0.66666  0.41667  Biso   1.000  Ar
  Ne3      1.0000 0.99519  0.98882  0.25187  Biso   1.000  Ne
  He7      1.0000 0.13905  0.03334  0.24849  Biso   1.000  He
  He8      1.0000 0.85600  0.89055  0.25156  Biso   1.000  He
  He9      1.0000 0.96567  0.10866  0.24845  Biso   1.000  He
  Ar3      1.0000 1.00000  1.00000  0.25000  Biso   1.000  Ar
  Ne4      1.0000 0.66667  0.33333  0.58333  Biso   1.000  Ne
  He10     1.0000 0.80571  0.36663  0.58182  Biso   1.000  He
  He11     1.0000 0.52270  0.22392  0.58489  Biso   1.000  He
  He12     1.0000 0.63231  0.44201  0.58177  Biso   1.000  He
  Ar4      1.0000 0.66667  0.33334  0.58333  Biso   1.000  Ar
  Ne5      1.0000 0.99363  0.98882  0.75187  Biso   1.000  Ne
  He13     1.0000 0.10775  0.14189  0.75154  Biso   1.000  He
  He14     1.0000 0.96652  0.86027  0.74848  Biso   1.000  He
  He15     1.0000 0.88816  0.03541  0.74840  Biso   1.000  He
  Ar5      1.0000 1.00000  1.00000  0.75000  Biso   1.000  Ar
  Ne6      1.0000 0.33333  0.66667  0.91667  Biso   1.000  Ne
  He16     1.0000 0.47239  0.69998  0.91516  Biso   1.000  He
  He17     1.0000 0.18938  0.55729  0.91824  Biso   1.000  He
  He18     1.0000 0.29901  0.77532  0.91512  Biso   1.000  He
  Ar6      1.0000 0.33334  0.66666  0.91667  Biso   1.000  Ar
