data_image0
_cell_length_a       22.752
_cell_length_b       12.921
_cell_length_c       11.252
_cell_angle_alpha    90
_cell_angle_beta     90
_cell_angle_gamma    90

_symmetry_space_group_name_H-M    "P 1"
_symmetry_int_tables_number       1

loop_
  _symmetry_equiv_pos_as_xyz
  'x, y, z'

loop_
  _atom_site_label
  _atom_site_occupancy
  _atom_site_fract_x
  _atom_site_fract_y
  _atom_site_fract_z
  _atom_site_thermal_displace_type
  _atom_site_B_iso_or_equiv
  _atom_site_type_symbol
  C1       1.0000 0.35720  0.87369  0.63207  Biso   1.000  C
  C2       1.0000 0.30340  0.86294  0.57714  Biso   1.000  C
  H1       1.0000 0.39038  0.87501  0.58399  Biso   1.000  H
  N1       1.0000 0.36458  0.88205  0.74440  Biso   1.000  N
  C3       1.0000 0.30239  0.86208  0.44988  Biso   1.000  C
  C4       1.0000 0.25000  0.86557  0.64415  Biso   1.000  C
  H2       1.0000 0.33439  0.87818  0.78999  Biso   1.000  H
  C5       1.0000 0.42190  0.89769  0.79790  Biso   1.000  C
  C6       1.0000 0.25000  0.86294  0.38864  Biso   1.000  C
  O1       1.0000 0.34942  0.86030  0.38971  Biso   1.000  O
  C7       1.0000 0.19660  0.86294  0.57714  Biso   1.000  C
  O2       1.0000 0.25000  0.87091  0.75551  Biso   1.000  O
  H3       1.0000 0.45139  0.89885  0.73587  Biso   1.000  H
  H4       1.0000 0.43060  0.83995  0.85007  Biso   1.000  H
  C8       1.0000 0.42559  1.00000  0.87025  Biso   1.000  C
  C9       1.0000 0.22099  0.87385  0.26564  Biso   1.000  C
  C10      1.0000 0.27901  0.87385  0.26564  Biso   1.000  C
  C11      1.0000 0.19761  0.86208  0.44988  Biso   1.000  C
  C12      1.0000 0.14280  0.87369  0.63207  Biso   1.000  C
  H5       1.0000 0.39412  1.00000  0.92819  Biso   1.000  H
  H6       1.0000 0.46242  1.00000  0.91379  Biso   1.000  H
  C13      1.0000 0.42190  0.10224  0.79790  Biso   1.000  C
  N2       1.0000 0.25000  0.88399  0.18894  Biso   1.000  N
  H7       1.0000 0.18201  0.87903  0.23098  Biso   1.000  H
  H8       1.0000 0.18201  0.87896  0.23098  Biso   1.000  H
  H9       1.0000 0.31799  0.87903  0.23098  Biso   1.000  H
  H10      1.0000 0.31799  0.87896  0.23098  Biso   1.000  H
  O3       1.0000 0.15058  0.86030  0.38971  Biso   1.000  O
  H11      1.0000 0.10962  0.87501  0.58399  Biso   1.000  H
  N3       1.0000 0.13542  0.88205  0.74440  Biso   1.000  N
  N4       1.0000 0.36458  0.11787  0.74440  Biso   1.000  N
  H12      1.0000 0.45139  0.10108  0.73587  Biso   1.000  H
  H13      1.0000 0.43060  0.15997  0.85007  Biso   1.000  H
  C14      1.0000 0.25000  0.90256  0.06257  Biso   1.000  C
  H14      1.0000 0.16561  0.87818  0.78999  Biso   1.000  H
  C15      1.0000 0.07810  0.89769  0.79790  Biso   1.000  C
  C16      1.0000 0.35720  0.12631  0.63207  Biso   1.000  C
  C17      1.0000 0.35720  0.12623  0.63207  Biso   1.000  C
  H15      1.0000 0.33439  0.12174  0.78999  Biso   1.000  H
  H16      1.0000 0.26701  0.85698  0.03004  Biso   1.000  H
  H17      1.0000 0.23299  0.85698  0.03004  Biso   1.000  H
  C18      1.0000 0.25000  1.00000  0.02222  Biso   1.000  C
  H18      1.0000 0.04861  0.89885  0.73587  Biso   1.000  H
  H19      1.0000 0.06940  0.83995  0.85007  Biso   1.000  H
  C19      1.0000 0.07441  1.00000  0.87025  Biso   1.000  C
  C20      1.0000 0.30340  0.13699  0.57714  Biso   1.000  C
  H20      1.0000 0.39038  0.12499  0.58399  Biso   1.000  H
  H21      1.0000 0.28380  1.00000  0.96961  Biso   1.000  H
  H22      1.0000 0.21620  1.00000  0.96961  Biso   1.000  H
  C21      1.0000 0.25000  0.09736  0.06257  Biso   1.000  C
  H23      1.0000 0.10588  1.00000  0.92819  Biso   1.000  H
  H24      1.0000 0.03758  1.00000  0.91379  Biso   1.000  H
  C22      1.0000 0.07810  0.10224  0.79790  Biso   1.000  C
  C23      1.0000 0.30239  0.13784  0.44988  Biso   1.000  C
  C24      1.0000 0.25000  0.13435  0.64415  Biso   1.000  C
  N5       1.0000 0.25000  0.11594  0.18894  Biso   1.000  N
  H25      1.0000 0.23299  0.14295  0.03004  Biso   1.000  H
  H26      1.0000 0.26701  0.14295  0.03004  Biso   1.000  H
  N6       1.0000 0.13542  0.11787  0.74440  Biso   1.000  N
  H27      1.0000 0.04861  0.10108  0.73587  Biso   1.000  H
  H28      1.0000 0.06940  0.15997  0.85007  Biso   1.000  H
  C25      1.0000 0.25000  0.13699  0.38864  Biso   1.000  C
  O4       1.0000 0.34942  0.13970  0.38971  Biso   1.000  O
  C26      1.0000 0.19660  0.13699  0.57714  Biso   1.000  C
  O5       1.0000 0.25000  0.12909  0.75551  Biso   1.000  O
  C27      1.0000 0.27901  0.12607  0.26564  Biso   1.000  C
  C28      1.0000 0.22099  0.12607  0.26564  Biso   1.000  C
  C29      1.0000 0.14280  0.12631  0.63207  Biso   1.000  C
  C30      1.0000 0.14280  0.12623  0.63207  Biso   1.000  C
  H29      1.0000 0.16561  0.12174  0.78999  Biso   1.000  H
  C31      1.0000 0.19761  0.13784  0.44988  Biso   1.000  C
  H30      1.0000 0.31799  0.12097  0.23098  Biso   1.000  H
  H31      1.0000 0.18201  0.12097  0.23098  Biso   1.000  H
  H32      1.0000 0.10962  0.12499  0.58399  Biso   1.000  H
  O6       1.0000 0.15058  0.13970  0.38971  Biso   1.000  O
  C32      1.0000 0.42190  0.60228  0.70210  Biso   1.000  C
  C33      1.0000 0.42559  0.49996  0.62984  Biso   1.000  C
  N7       1.0000 0.36458  0.61791  0.75560  Biso   1.000  N
  H33      1.0000 0.45139  0.60111  0.76422  Biso   1.000  H
  H34      1.0000 0.43060  0.66001  0.65002  Biso   1.000  H
  C34      1.0000 0.42190  0.39772  0.70210  Biso   1.000  C
  H35      1.0000 0.39412  0.49996  0.57181  Biso   1.000  H
  H36      1.0000 0.46242  0.49996  0.58621  Biso   1.000  H
  H37      1.0000 0.33439  0.62178  0.71001  Biso   1.000  H
  C35      1.0000 0.35720  0.62627  0.86802  Biso   1.000  C
  N8       1.0000 0.36458  0.38209  0.75560  Biso   1.000  N
  H38      1.0000 0.45139  0.39889  0.76422  Biso   1.000  H
  H39      1.0000 0.43060  0.33999  0.65002  Biso   1.000  H
  C36      1.0000 0.30340  0.63695  0.92295  Biso   1.000  C
  H40      1.0000 0.39038  0.62495  0.91601  Biso   1.000  H
  C37      1.0000 0.35720  0.37366  0.86802  Biso   1.000  C
  H41      1.0000 0.33439  0.37822  0.71001  Biso   1.000  H
  C38      1.0000 0.25000  0.63439  0.85594  Biso   1.000  C
  C39      1.0000 0.30239  0.63788  0.05012  Biso   1.000  C
  C40      1.0000 0.30340  0.36298  0.92295  Biso   1.000  C
  H42      1.0000 0.39038  0.37497  0.91601  Biso   1.000  H
  C41      1.0000 0.19660  0.63695  0.92295  Biso   1.000  C
  O7       1.0000 0.25000  0.62905  0.74449  Biso   1.000  O
  C42      1.0000 0.25000  0.63695  0.11145  Biso   1.000  C
  O8       1.0000 0.34942  0.63966  0.11038  Biso   1.000  O
  C43      1.0000 0.25000  0.36561  0.85594  Biso   1.000  C
  C44      1.0000 0.30239  0.36212  0.05012  Biso   1.000  C
  C45      1.0000 0.14280  0.62627  0.86802  Biso   1.000  C
  C46      1.0000 0.19761  0.63788  0.05012  Biso   1.000  C
  C47      1.0000 0.22099  0.62611  0.23445  Biso   1.000  C
  C48      1.0000 0.27901  0.62611  0.23445  Biso   1.000  C
  O9       1.0000 0.25000  0.37087  0.74449  Biso   1.000  O
  C49      1.0000 0.19660  0.36298  0.92295  Biso   1.000  C
  C50      1.0000 0.25000  0.36298  0.11145  Biso   1.000  C
  O10      1.0000 0.34942  0.36027  0.11038  Biso   1.000  O
  N9       1.0000 0.13542  0.61791  0.75560  Biso   1.000  N
  H43      1.0000 0.10962  0.62495  0.91601  Biso   1.000  H
  O11      1.0000 0.15058  0.63966  0.11038  Biso   1.000  O
  N10      1.0000 0.25000  0.61597  0.31114  Biso   1.000  N
  H44      1.0000 0.18201  0.62100  0.26902  Biso   1.000  H
  H45      1.0000 0.31799  0.62100  0.26902  Biso   1.000  H
  C51      1.0000 0.14280  0.37366  0.86802  Biso   1.000  C
  C52      1.0000 0.19761  0.36212  0.05012  Biso   1.000  C
  C53      1.0000 0.27901  0.37389  0.23445  Biso   1.000  C
  C54      1.0000 0.22099  0.37389  0.23445  Biso   1.000  C
  C55      1.0000 0.07810  0.60228  0.70210  Biso   1.000  C
  H46      1.0000 0.16561  0.62178  0.71001  Biso   1.000  H
  C56      1.0000 0.25000  0.59740  0.43743  Biso   1.000  C
  N11      1.0000 0.13542  0.38209  0.75560  Biso   1.000  N
  H47      1.0000 0.10962  0.37497  0.91601  Biso   1.000  H
  O12      1.0000 0.15058  0.36027  0.11038  Biso   1.000  O
  N12      1.0000 0.25000  0.38403  0.31114  Biso   1.000  N
  H48      1.0000 0.31799  0.37900  0.26902  Biso   1.000  H
  H49      1.0000 0.18201  0.37900  0.26902  Biso   1.000  H
  C57      1.0000 0.07441  0.49996  0.62984  Biso   1.000  C
  H50      1.0000 0.04861  0.60111  0.76422  Biso   1.000  H
  H51      1.0000 0.06940  0.66001  0.65002  Biso   1.000  H
  C58      1.0000 0.25000  0.49996  0.47787  Biso   1.000  C
  H52      1.0000 0.26701  0.64298  0.47005  Biso   1.000  H
  H53      1.0000 0.23299  0.64298  0.47005  Biso   1.000  H
  H54      1.0000 0.16561  0.37822  0.71001  Biso   1.000  H
  C59      1.0000 0.07810  0.39772  0.70210  Biso   1.000  C
  C60      1.0000 0.25000  0.40260  0.43743  Biso   1.000  C
  H55      1.0000 0.10588  0.49996  0.57181  Biso   1.000  H
  H56      1.0000 0.03758  0.49996  0.58621  Biso   1.000  H
  H57      1.0000 0.28380  0.49996  0.53048  Biso   1.000  H
  H58      1.0000 0.21620  0.49996  0.53048  Biso   1.000  H
  H59      1.0000 0.28380  0.49996  0.53039  Biso   1.000  H
  H60      1.0000 0.21620  0.49996  0.53039  Biso   1.000  H
  H61      1.0000 0.04861  0.39889  0.76422  Biso   1.000  H
  H62      1.0000 0.06940  0.33999  0.65002  Biso   1.000  H
  H63      1.0000 0.23299  0.35702  0.47005  Biso   1.000  H
  H64      1.0000 0.26701  0.35702  0.47005  Biso   1.000  H
  C61      1.0000 0.57810  0.60228  0.29790  Biso   1.000  C
  C62      1.0000 0.57441  0.49996  0.37025  Biso   1.000  C
  N13      1.0000 0.63542  0.61791  0.24440  Biso   1.000  N
  H65      1.0000 0.54861  0.60111  0.23578  Biso   1.000  H
  H66      1.0000 0.56940  0.66001  0.34998  Biso   1.000  H
  C63      1.0000 0.57810  0.39772  0.29790  Biso   1.000  C
  H67      1.0000 0.60588  0.49996  0.42819  Biso   1.000  H
  H68      1.0000 0.53758  0.49996  0.41379  Biso   1.000  H
  H69      1.0000 0.66561  0.62178  0.28999  Biso   1.000  H
  C64      1.0000 0.64280  0.62627  0.13198  Biso   1.000  C
  N14      1.0000 0.63542  0.38209  0.24440  Biso   1.000  N
  H70      1.0000 0.54861  0.39889  0.23578  Biso   1.000  H
  H71      1.0000 0.56940  0.33999  0.34998  Biso   1.000  H
  C65      1.0000 0.69660  0.63695  0.07714  Biso   1.000  C
  H72      1.0000 0.60962  0.62495  0.08399  Biso   1.000  H
  H73      1.0000 0.66561  0.37822  0.28999  Biso   1.000  H
  C66      1.0000 0.64280  0.37366  0.13198  Biso   1.000  C
  C67      1.0000 0.75000  0.63439  0.14406  Biso   1.000  C
  C68      1.0000 0.69761  0.63788  0.94988  Biso   1.000  C
  C69      1.0000 0.69660  0.36298  0.07714  Biso   1.000  C
  H74      1.0000 0.60962  0.37497  0.08399  Biso   1.000  H
  O13      1.0000 0.75000  0.62905  0.25551  Biso   1.000  O
  C70      1.0000 0.80340  0.63695  0.07714  Biso   1.000  C
  C71      1.0000 0.75000  0.63695  0.88855  Biso   1.000  C
  O14      1.0000 0.65058  0.63966  0.88971  Biso   1.000  O
  C72      1.0000 0.75000  0.36561  0.14406  Biso   1.000  C
  C73      1.0000 0.69761  0.36212  0.94988  Biso   1.000  C
  C74      1.0000 0.85720  0.62627  0.13198  Biso   1.000  C
  C75      1.0000 0.80239  0.63788  0.94988  Biso   1.000  C
  C76      1.0000 0.77901  0.62611  0.76555  Biso   1.000  C
  C77      1.0000 0.72099  0.62611  0.76555  Biso   1.000  C
  O15      1.0000 0.75000  0.37087  0.25551  Biso   1.000  O
  C78      1.0000 0.80340  0.36298  0.07714  Biso   1.000  C
  C79      1.0000 0.75000  0.36298  0.88855  Biso   1.000  C
  O16      1.0000 0.65058  0.36027  0.88971  Biso   1.000  O
  N15      1.0000 0.86458  0.61791  0.24440  Biso   1.000  N
  H75      1.0000 0.89038  0.62495  0.08399  Biso   1.000  H
  O17      1.0000 0.84942  0.63966  0.88971  Biso   1.000  O
  N16      1.0000 0.75000  0.61597  0.68886  Biso   1.000  N
  H76      1.0000 0.81799  0.62100  0.73098  Biso   1.000  H
  H77      1.0000 0.68201  0.62100  0.73098  Biso   1.000  H
  C80      1.0000 0.85720  0.37366  0.13198  Biso   1.000  C
  C81      1.0000 0.80239  0.36212  0.94988  Biso   1.000  C
  C82      1.0000 0.72099  0.37389  0.76555  Biso   1.000  C
  C83      1.0000 0.77901  0.37389  0.76555  Biso   1.000  C
  H78      1.0000 0.83439  0.62178  0.28999  Biso   1.000  H
  C84      1.0000 0.92190  0.60228  0.29790  Biso   1.000  C
  C85      1.0000 0.75000  0.59740  0.56257  Biso   1.000  C
  N17      1.0000 0.86458  0.38209  0.24440  Biso   1.000  N
  H79      1.0000 0.89038  0.37497  0.08399  Biso   1.000  H
  O18      1.0000 0.84942  0.36027  0.88971  Biso   1.000  O
  N18      1.0000 0.75000  0.38403  0.68886  Biso   1.000  N
  H80      1.0000 0.68201  0.37900  0.73098  Biso   1.000  H
  H81      1.0000 0.81799  0.37900  0.73098  Biso   1.000  H
  C86      1.0000 0.92559  0.49996  0.37025  Biso   1.000  C
  H82      1.0000 0.95139  0.60111  0.23578  Biso   1.000  H
  H83      1.0000 0.93060  0.66001  0.34998  Biso   1.000  H
  C87      1.0000 0.75000  0.49996  0.52222  Biso   1.000  C
  H84      1.0000 0.73299  0.64298  0.52995  Biso   1.000  H
  H85      1.0000 0.76701  0.64298  0.52995  Biso   1.000  H
  H86      1.0000 0.83439  0.37822  0.28999  Biso   1.000  H
  C88      1.0000 0.92190  0.39772  0.29790  Biso   1.000  C
  C89      1.0000 0.75000  0.40260  0.56257  Biso   1.000  C
  H87      1.0000 0.89412  0.49996  0.42819  Biso   1.000  H
  H88      1.0000 0.96242  0.49996  0.41379  Biso   1.000  H
  H89      1.0000 0.78380  0.49996  0.46961  Biso   1.000  H
  H90      1.0000 0.71620  0.49996  0.46961  Biso   1.000  H
  H91      1.0000 0.95139  0.39889  0.23578  Biso   1.000  H
  H92      1.0000 0.93060  0.33999  0.34998  Biso   1.000  H
  H93      1.0000 0.76701  0.35702  0.52995  Biso   1.000  H
  H94      1.0000 0.73299  0.35702  0.52995  Biso   1.000  H
  O19      1.0000 0.65058  0.86030  0.61029  Biso   1.000  O
  C90      1.0000 0.69761  0.86208  0.55012  Biso   1.000  C
  C91      1.0000 0.69660  0.86294  0.42295  Biso   1.000  C
  C92      1.0000 0.75000  0.86294  0.61145  Biso   1.000  C
  C93      1.0000 0.64280  0.87369  0.36802  Biso   1.000  C
  C94      1.0000 0.75000  0.86557  0.35594  Biso   1.000  C
  C95      1.0000 0.80239  0.86208  0.55012  Biso   1.000  C
  C96      1.0000 0.77901  0.87385  0.73445  Biso   1.000  C
  C97      1.0000 0.72099  0.87385  0.73445  Biso   1.000  C
  N19      1.0000 0.63542  0.88205  0.25560  Biso   1.000  N
  H95      1.0000 0.60962  0.87501  0.41601  Biso   1.000  H
  O20      1.0000 0.75000  0.87091  0.24449  Biso   1.000  O
  C98      1.0000 0.80340  0.86294  0.42295  Biso   1.000  C
  O21      1.0000 0.84942  0.86030  0.61029  Biso   1.000  O
  N20      1.0000 0.75000  0.88399  0.81114  Biso   1.000  N
  H96      1.0000 0.81799  0.87903  0.76902  Biso   1.000  H
  H97      1.0000 0.81799  0.87896  0.76902  Biso   1.000  H
  H98      1.0000 0.68201  0.87903  0.76902  Biso   1.000  H
  H99      1.0000 0.68201  0.87896  0.76902  Biso   1.000  H
  C99      1.0000 0.57810  0.89769  0.20210  Biso   1.000  C
  H100     1.0000 0.66561  0.87818  0.21001  Biso   1.000  H
  C100     1.0000 0.85720  0.87369  0.36802  Biso   1.000  C
  C101     1.0000 0.75000  0.90256  0.93743  Biso   1.000  C
  H101     1.0000 0.54861  0.89885  0.26422  Biso   1.000  H
  H102     1.0000 0.56940  0.83995  0.15002  Biso   1.000  H
  C102     1.0000 0.57441  1.00000  0.12984  Biso   1.000  C
  H103     1.0000 0.89038  0.87501  0.41601  Biso   1.000  H
  N21      1.0000 0.86458  0.88205  0.25560  Biso   1.000  N
  H104     1.0000 0.73299  0.85698  0.97005  Biso   1.000  H
  H105     1.0000 0.76701  0.85698  0.97005  Biso   1.000  H
  C103     1.0000 0.75000  1.00000  0.97787  Biso   1.000  C
  H106     1.0000 0.60588  1.00000  0.07181  Biso   1.000  H
  H107     1.0000 0.53758  1.00000  0.08621  Biso   1.000  H
  C104     1.0000 0.57810  0.10224  0.20210  Biso   1.000  C
  H108     1.0000 0.83439  0.87818  0.21001  Biso   1.000  H
  C105     1.0000 0.92190  0.89769  0.20210  Biso   1.000  C
  C106     1.0000 0.75000  0.09736  0.93743  Biso   1.000  C
  H109     1.0000 0.78380  1.00000  0.03039  Biso   1.000  H
  H110     1.0000 0.71620  1.00000  0.03039  Biso   1.000  H
  N22      1.0000 0.63542  0.11787  0.25560  Biso   1.000  N
  H111     1.0000 0.54861  0.10108  0.26422  Biso   1.000  H
  H112     1.0000 0.56940  0.15997  0.15002  Biso   1.000  H
  H113     1.0000 0.95139  0.89885  0.26422  Biso   1.000  H
  H114     1.0000 0.93060  0.83995  0.15002  Biso   1.000  H
  C107     1.0000 0.92559  1.00000  0.12984  Biso   1.000  C
  N23      1.0000 0.75000  0.11594  0.81114  Biso   1.000  N
  H115     1.0000 0.76701  0.14295  0.97005  Biso   1.000  H
  H116     1.0000 0.73299  0.14295  0.97005  Biso   1.000  H
  C108     1.0000 0.64280  0.12631  0.36802  Biso   1.000  C
  H117     1.0000 0.66561  0.12174  0.21001  Biso   1.000  H
  C109     1.0000 0.64280  0.12623  0.36802  Biso   1.000  C
  H118     1.0000 0.89412  1.00000  0.07181  Biso   1.000  H
  H119     1.0000 0.96242  1.00000  0.08621  Biso   1.000  H
  C110     1.0000 0.92190  0.10224  0.20210  Biso   1.000  C
  C111     1.0000 0.72099  0.12607  0.73445  Biso   1.000  C
  C112     1.0000 0.77901  0.12607  0.73445  Biso   1.000  C
  C113     1.0000 0.69660  0.13699  0.42295  Biso   1.000  C
  H120     1.0000 0.60962  0.12499  0.41601  Biso   1.000  H
  N24      1.0000 0.86458  0.11787  0.25560  Biso   1.000  N
  H121     1.0000 0.95139  0.10108  0.26422  Biso   1.000  H
  H122     1.0000 0.93060  0.15997  0.15002  Biso   1.000  H
  C114     1.0000 0.75000  0.13699  0.61145  Biso   1.000  C
  H123     1.0000 0.68201  0.12097  0.76902  Biso   1.000  H
  H124     1.0000 0.81799  0.12097  0.76902  Biso   1.000  H
  C115     1.0000 0.75000  0.13435  0.35594  Biso   1.000  C
  C116     1.0000 0.69761  0.13784  0.55012  Biso   1.000  C
  C117     1.0000 0.85720  0.12631  0.36802  Biso   1.000  C
  C118     1.0000 0.85720  0.12623  0.36802  Biso   1.000  C
  H125     1.0000 0.83439  0.12174  0.21001  Biso   1.000  H
  C119     1.0000 0.80239  0.13784  0.55012  Biso   1.000  C
  O22      1.0000 0.75000  0.12909  0.24449  Biso   1.000  O
  C120     1.0000 0.80340  0.13699  0.42295  Biso   1.000  C
  O23      1.0000 0.65058  0.13970  0.61029  Biso   1.000  O
  H126     1.0000 0.89038  0.12499  0.41601  Biso   1.000  H
  O24      1.0000 0.84942  0.13970  0.61029  Biso   1.000  O
  Ne1      1.0000 0.25000  0.49998  0.98101  Biso   1.000  Ne
  He1      1.0000 0.19348  0.49997  0.98790  Biso   1.000  He
  He2      1.0000 0.30651  0.49998  0.98791  Biso   1.000  He
  Ar1      1.0000 0.25000  0.49996  0.98603  Biso   1.000  Ar
  Ne2      1.0000 0.75000  0.49998  0.02100  Biso   1.000  Ne
  He3      1.0000 0.80540  0.49996  0.01221  Biso   1.000  He
  He4      1.0000 0.69265  0.50000  0.01205  Biso   1.000  He
  He5      1.0000 0.77997  0.49996  0.90854  Biso   1.000  He
  Ar2      1.0000 0.74989  0.49951  0.01401  Biso   1.000  Ar
  Ne3      1.0000 0.25000  0.00475  0.52459  Biso   1.000  Ne
  He6      1.0000 0.30540  0.99996  0.51221  Biso   1.000  He
  He7      1.0000 0.19286  0.99996  0.51216  Biso   1.000  He
  He8      1.0000 0.27998  0.99996  0.40855  Biso   1.000  He
  Ar3      1.0000 0.25000  0.99996  0.51401  Biso   1.000  Ar
  Ne4      1.0000 0.75000  0.00475  0.47545  Biso   1.000  Ne
  He9      1.0000 0.69348  0.99996  0.48787  Biso   1.000  He
  He10     1.0000 0.80651  0.99996  0.48787  Biso   1.000  He
  Ar4      1.0000 0.75000  0.99996  0.48603  Biso   1.000  Ar
