data_image0
_cell_length_a       18.767
_cell_length_b       19.409
_cell_length_c       27.757
_cell_angle_alpha    76.07
_cell_angle_beta     87.34
_cell_angle_gamma    84.03

_symmetry_space_group_name_H-M    "P 1"
_symmetry_int_tables_number       1

loop_
  _symmetry_equiv_pos_as_xyz
  'x, y, z'

loop_
  _atom_site_label
  _atom_site_occupancy
  _atom_site_fract_x
  _atom_site_fract_y
  _atom_site_fract_z
  _atom_site_thermal_displace_type
  _atom_site_B_iso_or_equiv
  _atom_site_type_symbol
  O1       1.0000 0.51184  0.58663  0.53416  Biso   1.000  O
  C1       1.0000 0.49523  0.58999  0.57596  Biso   1.000  C
  N1       1.0000 0.53942  0.57753  0.61476  Biso   1.000  N
  O2       1.0000 0.42378  0.60932  0.58595  Biso   1.000  O
  C2       1.0000 0.61552  0.57346  0.60466  Biso   1.000  C
  C3       1.0000 0.51376  0.57382  0.66603  Biso   1.000  C
  C4       1.0000 0.40755  0.64411  0.62430  Biso   1.000  C
  C5       1.0000 0.64745  0.63734  0.59282  Biso   1.000  C
  C6       1.0000 0.65606  0.50848  0.60808  Biso   1.000  C
  C7       1.0000 0.45081  0.62915  0.66496  Biso   1.000  C
  H1       1.0000 0.49902  0.52573  0.68129  Biso   1.000  H
  H2       1.0000 0.55241  0.58312  0.68601  Biso   1.000  H
  C8       1.0000 0.34845  0.69412  0.61907  Biso   1.000  C
  C9       1.0000 0.72046  0.63526  0.58357  Biso   1.000  C
  H3       1.0000 0.61942  0.68151  0.59118  Biso   1.000  H
  H4       1.0000 0.63384  0.46520  0.61680  Biso   1.000  H
  C10      1.0000 0.72982  0.50752  0.59842  Biso   1.000  C
  C11      1.0000 0.43528  0.66605  0.70138  Biso   1.000  C
  H5       1.0000 0.31903  0.70329  0.59081  Biso   1.000  H
  C12      1.0000 0.33353  0.73027  0.65631  Biso   1.000  C
  C13      1.0000 0.76411  0.69935  0.57154  Biso   1.000  C
  C14      1.0000 0.76146  0.57058  0.58517  Biso   1.000  C
  H6       1.0000 0.75821  0.46339  0.60099  Biso   1.000  H
  C15      1.0000 0.37623  0.71756  0.69767  Biso   1.000  C
  H7       1.0000 0.46502  0.65651  0.72948  Biso   1.000  H
  H8       1.0000 0.29305  0.76460  0.65348  Biso   1.000  H
  H9       1.0000 0.73445  0.74559  0.57010  Biso   1.000  H
  C16      1.0000 0.82152  0.68316  0.61049  Biso   1.000  C
  C17      1.0000 0.80413  0.69650  0.52309  Biso   1.000  C
  C18      1.0000 0.84122  0.57884  0.57477  Biso   1.000  C
  C19      1.0000 0.36277  0.75888  0.73661  Biso   1.000  C
  C20      1.0000 0.83466  0.72496  0.64242  Biso   1.000  C
  C21      1.0000 0.86338  0.61856  0.61186  Biso   1.000  C
  C22      1.0000 0.80406  0.75176  0.48106  Biso   1.000  C
  C23      1.0000 0.84655  0.63202  0.52473  Biso   1.000  C
  H10      1.0000 0.87083  0.53251  0.57618  Biso   1.000  H
  C24      1.0000 0.33614  0.83085  0.72380  Biso   1.000  C
  C25      1.0000 0.37576  0.72671  0.78644  Biso   1.000  C
  H11      1.0000 0.80531  0.76792  0.64238  Biso   1.000  H
  C26      1.0000 0.89183  0.70293  0.67465  Biso   1.000  C
  C27      1.0000 0.92030  0.59707  0.64391  Biso   1.000  C
  H12      1.0000 0.77452  0.79499  0.47962  Biso   1.000  H
  C28      1.0000 0.84839  0.74282  0.44074  Biso   1.000  C
  C29      1.0000 0.88987  0.62348  0.48459  Biso   1.000  C
  H13      1.0000 0.32692  0.85341  0.69002  Biso   1.000  H
  C30      1.0000 0.32297  0.86948  0.75971  Biso   1.000  C
  C31      1.0000 0.36396  0.76566  0.82275  Biso   1.000  C
  H14      1.0000 0.39282  0.67762  0.79579  Biso   1.000  H
  C32      1.0000 0.93470  0.64005  0.67494  Biso   1.000  C
  N2       1.0000 0.90650  0.74589  0.70802  Biso   1.000  N
  H15      1.0000 0.94907  0.55357  0.64461  Biso   1.000  H
  C33      1.0000 0.89115  0.67963  0.44238  Biso   1.000  C
  N3       1.0000 0.84976  0.80274  0.39827  Biso   1.000  N
  H16      1.0000 0.91851  0.57990  0.48570  Biso   1.000  H
  C34      1.0000 0.33858  0.83696  0.80842  Biso   1.000  C
  C35      1.0000 0.29445  0.94610  0.74998  Biso   1.000  C
  H17      1.0000 0.37322  0.74370  0.85661  Biso   1.000  H
  H18      1.0000 0.97417  0.62639  0.69659  Biso   1.000  H
  C36      1.0000 0.91035  0.71499  0.75700  Biso   1.000  C
  C37      1.0000 0.93464  0.81517  0.68549  Biso   1.000  C
  H19      1.0000 0.92130  0.67449  0.41479  Biso   1.000  H
  C38      1.0000 0.90717  0.84124  0.39125  Biso   1.000  C
  C39      1.0000 0.78332  0.83239  0.37269  Biso   1.000  C
  O3       1.0000 0.32812  0.87620  0.84495  Biso   1.000  O
  N4       1.0000 0.32957  0.98044  0.78310  Biso   1.000  N
  H20      1.0000 0.24196  0.95008  0.75622  Biso   1.000  H
  H21      1.0000 0.30414  0.97008  0.71489  Biso   1.000  H
  O4       1.0000 0.89649  0.65442  0.77664  Biso   1.000  O
  O5       1.0000 0.93230  0.75527  0.78700  Biso   1.000  O
  C40      1.0000 0.92447  0.86253  0.72147  Biso   1.000  C
  H22      1.0000 0.98626  0.80731  0.67710  Biso   1.000  H
  H23      1.0000 0.90912  0.83838  0.65449  Biso   1.000  H
  O6       1.0000 0.96716  0.81963  0.40584  Biso   1.000  O
  O7       1.0000 0.89438  0.91157  0.36489  Biso   1.000  O
  C41      1.0000 0.76714  0.90852  0.37581  Biso   1.000  C
  H24      1.0000 0.78824  0.82989  0.33749  Biso   1.000  H
  H25      1.0000 0.74354  0.80441  0.38821  Biso   1.000  H
  C42      1.0000 0.34034  0.94815  0.83129  Biso   1.000  C
  C43      1.0000 0.35045  0.05115  0.76245  Biso   1.000  C
  C44      1.0000 0.92335  0.82924  0.77122  Biso   1.000  C
  C45      1.0000 0.91402  0.93632  0.70758  Biso   1.000  C
  C46      1.0000 0.82655  0.94567  0.37272  Biso   1.000  C
  C47      1.0000 0.70075  0.94111  0.38520  Biso   1.000  C
  O8       1.0000 0.35902  0.97454  0.86329  Biso   1.000  O
  C48      1.0000 0.41466  0.05651  0.73535  Biso   1.000  C
  C49      1.0000 0.30438  0.11097  0.76461  Biso   1.000  C
  C50      1.0000 0.91129  0.86698  0.80790  Biso   1.000  C
  C51      1.0000 0.90107  0.97639  0.74333  Biso   1.000  C
  H26      1.0000 0.91564  0.95989  0.67338  Biso   1.000  H
  C52      1.0000 0.82181  0.01545  0.37744  Biso   1.000  C
  H27      1.0000 0.65975  0.91539  0.38862  Biso   1.000  H
  C53      1.0000 0.69366  0.01209  0.38973  Biso   1.000  C
  C54      1.0000 0.43107  0.12300  0.70884  Biso   1.000  C
  H28      1.0000 0.44666  0.01531  0.73509  Biso   1.000  H
  H29      1.0000 0.26111  0.10623  0.78369  Biso   1.000  H
  C55      1.0000 0.32174  0.17823  0.73858  Biso   1.000  C
  H30      1.0000 0.91084  0.84292  0.84198  Biso   1.000  H
  C56      1.0000 0.89989  0.94054  0.79346  Biso   1.000  C
  C57      1.0000 0.88301  0.05489  0.72826  Biso   1.000  C
  H31      1.0000 0.86334  0.04041  0.37458  Biso   1.000  H
  C58      1.0000 0.75504  0.04785  0.38650  Biso   1.000  C
  C59      1.0000 0.62098  0.04734  0.39816  Biso   1.000  C
  C60      1.0000 0.49539  0.13888  0.67383  Biso   1.000  C
  C61      1.0000 0.38474  0.18461  0.71048  Biso   1.000  C
  H32      1.0000 0.29055  0.21952  0.74010  Biso   1.000  H
  H33      1.0000 0.89114  0.96709  0.81800  Biso   1.000  H
  C62      1.0000 0.82499  0.08569  0.75202  Biso   1.000  C
  C63      1.0000 0.92035  0.09808  0.69017  Biso   1.000  C
  H34      1.0000 0.75093  0.09530  0.39058  Biso   1.000  H
  C64      1.0000 0.61097  0.09664  0.42782  Biso   1.000  C
  C65      1.0000 0.56135  0.03145  0.37655  Biso   1.000  C
  H35      1.0000 0.52853  0.09548  0.67272  Biso   1.000  H
  C66      1.0000 0.53192  0.19641  0.68954  Biso   1.000  C
  C67      1.0000 0.46318  0.17588  0.62397  Biso   1.000  C
  C68      1.0000 0.40959  0.25205  0.67676  Biso   1.000  C
  H36      1.0000 0.79945  0.05667  0.77831  Biso   1.000  H
  C69      1.0000 0.80469  0.15852  0.73728  Biso   1.000  C
  C70      1.0000 0.90040  0.17108  0.67465  Biso   1.000  C
  H37      1.0000 0.96016  0.07740  0.67439  Biso   1.000  H
  H38      1.0000 0.65120  0.10849  0.44260  Biso   1.000  H
  C71      1.0000 0.54352  0.12850  0.43603  Biso   1.000  C
  H39      1.0000 0.56760  0.99902  0.35561  Biso   1.000  H
  C72      1.0000 0.49274  0.06165  0.38475  Biso   1.000  C
  C73      1.0000 0.60362  0.19347  0.69830  Biso   1.000  C
  C74      1.0000 0.48583  0.25750  0.69161  Biso   1.000  C
  C75      1.0000 0.47639  0.15515  0.57964  Biso   1.000  C
  C76      1.0000 0.41710  0.23697  0.62516  Biso   1.000  C
  H40      1.0000 0.37644  0.29552  0.67780  Biso   1.000  H
  C77      1.0000 0.84226  0.19932  0.69893  Biso   1.000  C
  C78      1.0000 0.74002  0.19611  0.75648  Biso   1.000  C
  H41      1.0000 0.92564  0.20039  0.64840  Biso   1.000  H
  C79      1.0000 0.48560  0.10909  0.41516  Biso   1.000  C
  C80      1.0000 0.52772  0.18180  0.46703  Biso   1.000  C
  H42      1.0000 0.45220  0.05010  0.37001  Biso   1.000  H
  H43      1.0000 0.63453  0.15172  0.69770  Biso   1.000  H
  C81      1.0000 0.63044  0.25296  0.70814  Biso   1.000  C
  C82      1.0000 0.51281  0.31622  0.70186  Biso   1.000  C
  H44      1.0000 0.50782  0.11392  0.57841  Biso   1.000  H
  C83      1.0000 0.44293  0.19564  0.53716  Biso   1.000  C
  C84      1.0000 0.38343  0.27735  0.58268  Biso   1.000  C
  O9       1.0000 0.81967  0.27220  0.68241  Biso   1.000  O
  N5       1.0000 0.70633  0.24875  0.71456  Biso   1.000  N
  H45      1.0000 0.75407  0.22031  0.78169  Biso   1.000  H
  H46      1.0000 0.70585  0.16140  0.77229  Biso   1.000  H
  O10      1.0000 0.41576  0.13786  0.42422  Biso   1.000  O
  N6       1.0000 0.45636  0.17332  0.49127  Biso   1.000  N
  H47      1.0000 0.52861  0.23069  0.44579  Biso   1.000  H
  H48      1.0000 0.56474  0.17462  0.49250  Biso   1.000  H
  C85      1.0000 0.58591  0.31386  0.71033  Biso   1.000  C
  H49      1.0000 0.48183  0.35772  0.70309  Biso   1.000  H
  C86      1.0000 0.39696  0.25630  0.53809  Biso   1.000  C
  H50      1.0000 0.35185  0.31848  0.58391  Biso   1.000  H
  C87      1.0000 0.74646  0.29236  0.68100  Biso   1.000  C
  C88      1.0000 0.40070  0.15617  0.46896  Biso   1.000  C
  H51      1.0000 0.60506  0.35363  0.71749  Biso   1.000  H
  H52      1.0000 0.37482  0.28338  0.50850  Biso   1.000  H
  O11      1.0000 0.72493  0.34391  0.64999  Biso   1.000  O
  O12      1.0000 0.33967  0.15583  0.48455  Biso   1.000  O
  O13      1.0000 0.48822  0.41334  0.46584  Biso   1.000  O
  C89      1.0000 0.50483  0.40998  0.42404  Biso   1.000  C
  N7       1.0000 0.46065  0.42244  0.38524  Biso   1.000  N
  O14      1.0000 0.57627  0.39070  0.41405  Biso   1.000  O
  C90      1.0000 0.38454  0.42651  0.39534  Biso   1.000  C
  C91      1.0000 0.48630  0.42620  0.33396  Biso   1.000  C
  C92      1.0000 0.59251  0.35586  0.37570  Biso   1.000  C
  C93      1.0000 0.35260  0.36269  0.40718  Biso   1.000  C
  C94      1.0000 0.34400  0.49153  0.39196  Biso   1.000  C
  C95      1.0000 0.54925  0.37087  0.33504  Biso   1.000  C
  H53      1.0000 0.50104  0.47430  0.31870  Biso   1.000  H
  H54      1.0000 0.44764  0.41690  0.31399  Biso   1.000  H
  C96      1.0000 0.65161  0.30590  0.38093  Biso   1.000  C
  C97      1.0000 0.27960  0.36471  0.41642  Biso   1.000  C
  H55      1.0000 0.38064  0.31851  0.40881  Biso   1.000  H
  C98      1.0000 0.27024  0.49245  0.40157  Biso   1.000  C
  H56      1.0000 0.36621  0.53482  0.38319  Biso   1.000  H
  C99      1.0000 0.56478  0.33392  0.29862  Biso   1.000  C
  H57      1.0000 0.68103  0.29673  0.40918  Biso   1.000  H
  C100     1.0000 0.66653  0.26970  0.34369  Biso   1.000  C
  C101     1.0000 0.23595  0.30067  0.42845  Biso   1.000  C
  C102     1.0000 0.23860  0.42944  0.41483  Biso   1.000  C
  H58      1.0000 0.24180  0.53658  0.39901  Biso   1.000  H
  C103     1.0000 0.62383  0.28245  0.30237  Biso   1.000  C
  H59      1.0000 0.53504  0.34351  0.27051  Biso   1.000  H
  H60      1.0000 0.70701  0.23537  0.34651  Biso   1.000  H
  C104     1.0000 0.17854  0.31686  0.38951  Biso   1.000  C
  H61      1.0000 0.26561  0.25439  0.42990  Biso   1.000  H
  C105     1.0000 0.19593  0.30347  0.47691  Biso   1.000  C
  C106     1.0000 0.15884  0.42118  0.42522  Biso   1.000  C
  C107     1.0000 0.63723  0.24114  0.26338  Biso   1.000  C
  C108     1.0000 0.16541  0.27501  0.35758  Biso   1.000  C
  C109     1.0000 0.13667  0.38146  0.38813  Biso   1.000  C
  C110     1.0000 0.19601  0.24821  0.51893  Biso   1.000  C
  C111     1.0000 0.15351  0.36795  0.47527  Biso   1.000  C
  H62      1.0000 0.12923  0.46751  0.42381  Biso   1.000  H
  C112     1.0000 0.66392  0.16917  0.27619  Biso   1.000  C
  C113     1.0000 0.62430  0.27331  0.21356  Biso   1.000  C
  C114     1.0000 0.10823  0.29709  0.32535  Biso   1.000  C
  H63      1.0000 0.19469  0.23211  0.35761  Biso   1.000  H
  C115     1.0000 0.07977  0.40290  0.35609  Biso   1.000  C
  H64      1.0000 0.22555  0.20498  0.52038  Biso   1.000  H
  C116     1.0000 0.15167  0.25720  0.55925  Biso   1.000  C
  C117     1.0000 0.11020  0.37649  0.51541  Biso   1.000  C
  H65      1.0000 0.67313  0.14660  0.31002  Biso   1.000  H
  C118     1.0000 0.67709  0.13048  0.24033  Biso   1.000  C
  C119     1.0000 0.63609  0.23436  0.17725  Biso   1.000  C
  H66      1.0000 0.60719  0.32240  0.20420  Biso   1.000  H
  N8       1.0000 0.09356  0.25413  0.29197  Biso   1.000  N
  C120     1.0000 0.06536  0.35993  0.32505  Biso   1.000  C
  H67      1.0000 0.05100  0.44640  0.35539  Biso   1.000  H
  C121     1.0000 0.10891  0.32039  0.55762  Biso   1.000  C
  N9       1.0000 0.15030  0.19723  0.60173  Biso   1.000  N
  H68      1.0000 0.08155  0.42012  0.51429  Biso   1.000  H
  C122     1.0000 0.66148  0.16306  0.19158  Biso   1.000  C
  C123     1.0000 0.70561  0.05387  0.25002  Biso   1.000  C
  H69      1.0000 0.62678  0.25632  0.14339  Biso   1.000  H
  C124     1.0000 0.08971  0.28502  0.24304  Biso   1.000  C
  C125     1.0000 0.06542  0.18485  0.31451  Biso   1.000  C
  H70      1.0000 0.02590  0.37358  0.30341  Biso   1.000  H
  H71      1.0000 0.07871  0.32549  0.58521  Biso   1.000  H
  C126     1.0000 0.09289  0.15878  0.60875  Biso   1.000  C
  C127     1.0000 0.21674  0.16763  0.62731  Biso   1.000  C
  O15      1.0000 0.67189  0.12382  0.15505  Biso   1.000  O
  N10      1.0000 0.67044  0.01953  0.21690  Biso   1.000  N
  H72      1.0000 0.75810  0.04987  0.24382  Biso   1.000  H
  H73      1.0000 0.69592  0.02989  0.28510  Biso   1.000  H
  O16      1.0000 0.10357  0.34555  0.22336  Biso   1.000  O
  O17      1.0000 0.06775  0.24475  0.21300  Biso   1.000  O
  C128     1.0000 0.07560  0.13744  0.27853  Biso   1.000  C
  H74      1.0000 0.01380  0.19271  0.32290  Biso   1.000  H
  H75      1.0000 0.09094  0.16159  0.34551  Biso   1.000  H
  O18      1.0000 0.03291  0.18034  0.59415  Biso   1.000  O
  O19      1.0000 0.10568  0.08846  0.63511  Biso   1.000  O
  C129     1.0000 0.23293  0.09146  0.62419  Biso   1.000  C
  H76      1.0000 0.21182  0.17008  0.66251  Biso   1.000  H
  H77      1.0000 0.25652  0.19561  0.61179  Biso   1.000  H
  C130     1.0000 0.65973  0.05182  0.16871  Biso   1.000  C
  C131     1.0000 0.64961  0.94887  0.23754  Biso   1.000  C
  C132     1.0000 0.07666  0.17073  0.22878  Biso   1.000  C
  C133     1.0000 0.08604  0.06371  0.29242  Biso   1.000  C
  C134     1.0000 0.17351  0.05435  0.62727  Biso   1.000  C
  C135     1.0000 0.29926  0.05886  0.61480  Biso   1.000  C
  O20      1.0000 0.64104  0.02549  0.13670  Biso   1.000  O
  C136     1.0000 0.58540  0.94351  0.26465  Biso   1.000  C
  C137     1.0000 0.69568  0.88898  0.23543  Biso   1.000  C
  C138     1.0000 0.08878  0.13299  0.19210  Biso   1.000  C
  C139     1.0000 0.09899  0.02358  0.25666  Biso   1.000  C
  H78      1.0000 0.08442  0.04008  0.32661  Biso   1.000  H
  C140     1.0000 0.17825  0.98452  0.62256  Biso   1.000  C
  H79      1.0000 0.34031  0.08458  0.61138  Biso   1.000  H
  C141     1.0000 0.30640  0.98793  0.61027  Biso   1.000  C
  C142     1.0000 0.56899  0.87697  0.29116  Biso   1.000  C
  H80      1.0000 0.55340  0.98471  0.26491  Biso   1.000  H
  C143     1.0000 0.67832  0.82179  0.26142  Biso   1.000  C
  H81      1.0000 0.73889  0.89380  0.21631  Biso   1.000  H
  H82      1.0000 0.08922  0.15710  0.15802  Biso   1.000  H
  C144     1.0000 0.10017  0.05948  0.20654  Biso   1.000  C
  C145     1.0000 0.11700  0.94514  0.27174  Biso   1.000  C
  H83      1.0000 0.13672  0.95961  0.62542  Biso   1.000  H
  C146     1.0000 0.24502  0.95212  0.61350  Biso   1.000  C
  C147     1.0000 0.37908  0.95268  0.60184  Biso   1.000  C
  C148     1.0000 0.50468  0.86109  0.32617  Biso   1.000  C
  C149     1.0000 0.61532  0.81536  0.28952  Biso   1.000  C
  H84      1.0000 0.70951  0.78050  0.25989  Biso   1.000  H
  H85      1.0000 0.10892  0.03288  0.18200  Biso   1.000  H
  C150     1.0000 0.17507  0.91428  0.24798  Biso   1.000  C
  C151     1.0000 0.07971  0.90189  0.30983  Biso   1.000  C
  H86      1.0000 0.24913  0.90467  0.60941  Biso   1.000  H
  C152     1.0000 0.38909  0.90338  0.57217  Biso   1.000  C
  C153     1.0000 0.43866  0.96857  0.62345  Biso   1.000  C
  C154     1.0000 0.46808  0.80361  0.31046  Biso   1.000  C
  H87      1.0000 0.47153  0.90447  0.32732  Biso   1.000  H
  C155     1.0000 0.53683  0.82408  0.37607  Biso   1.000  C
  C156     1.0000 0.59047  0.74797  0.32323  Biso   1.000  C
  H88      1.0000 0.20061  0.94330  0.22169  Biso   1.000  H
  C157     1.0000 0.19538  0.84145  0.26272  Biso   1.000  C
  C158     1.0000 0.09965  0.82893  0.32539  Biso   1.000  C
  H89      1.0000 0.03990  0.92262  0.32561  Biso   1.000  H
  H90      1.0000 0.34886  0.89148  0.55740  Biso   1.000  H
  C159     1.0000 0.45654  0.87152  0.56397  Biso   1.000  C
  H91      1.0000 0.43245  0.00101  0.64439  Biso   1.000  H
  C160     1.0000 0.50732  0.93837  0.61524  Biso   1.000  C
  C161     1.0000 0.39643  0.80655  0.30170  Biso   1.000  C
  C162     1.0000 0.51423  0.74252  0.30838  Biso   1.000  C
  C163     1.0000 0.52362  0.84482  0.42036  Biso   1.000  C
  C164     1.0000 0.58296  0.76306  0.37484  Biso   1.000  C
  H92      1.0000 0.62362  0.70450  0.32219  Biso   1.000  H
  C165     1.0000 0.15780  0.80070  0.30107  Biso   1.000  C
  C166     1.0000 0.26004  0.80386  0.24352  Biso   1.000  C
  H93      1.0000 0.07442  0.79958  0.35160  Biso   1.000  H
  C167     1.0000 0.51441  0.89088  0.58484  Biso   1.000  C
  C168     1.0000 0.47234  0.81822  0.53297  Biso   1.000  C
  H94      1.0000 0.54785  0.94992  0.62998  Biso   1.000  H
  C169     1.0000 0.36962  0.74701  0.29186  Biso   1.000  C
  H95      1.0000 0.36553  0.84831  0.30229  Biso   1.000  H
  C170     1.0000 0.48725  0.68380  0.29814  Biso   1.000  C
  H96      1.0000 0.49224  0.88610  0.42158  Biso   1.000  H
  C171     1.0000 0.55714  0.80433  0.46283  Biso   1.000  C
  C172     1.0000 0.61663  0.72262  0.41732  Biso   1.000  C
  O21      1.0000 0.18039  0.72783  0.31759  Biso   1.000  O
  N11      1.0000 0.29373  0.75128  0.28544  Biso   1.000  N
  H97      1.0000 0.24599  0.77971  0.21831  Biso   1.000  H
  H98      1.0000 0.29422  0.83857  0.22770  Biso   1.000  H
  O22      1.0000 0.58430  0.86216  0.57578  Biso   1.000  O
  N12      1.0000 0.54365  0.82665  0.50872  Biso   1.000  N
  H99      1.0000 0.47146  0.76928  0.55420  Biso   1.000  H
  H100     1.0000 0.43532  0.82541  0.50750  Biso   1.000  H
  C173     1.0000 0.41415  0.68615  0.28971  Biso   1.000  C
  H101     1.0000 0.51823  0.64231  0.29691  Biso   1.000  H
  C174     1.0000 0.60310  0.74367  0.46191  Biso   1.000  C
  H102     1.0000 0.64821  0.68149  0.41609  Biso   1.000  H
  C175     1.0000 0.25360  0.70761  0.31900  Biso   1.000  C
  C176     1.0000 0.59936  0.84380  0.53104  Biso   1.000  C
  H103     1.0000 0.39500  0.64639  0.28250  Biso   1.000  H
  H104     1.0000 0.62525  0.71659  0.49150  Biso   1.000  H
  O23      1.0000 0.27513  0.65611  0.35000  Biso   1.000  O
  O24      1.0000 0.66039  0.84420  0.51544  Biso   1.000  O
  O25      1.0000 0.65519  0.44461  0.76193  Biso   1.000  O
  C177     1.0000 0.72759  0.42472  0.75599  Biso   1.000  C
  C178     1.0000 0.63495  0.51195  0.77044  Biso   1.000  C
  N13      1.0000 0.76842  0.47904  0.73828  Biso   1.000  N
  O26      1.0000 0.74755  0.36190  0.76717  Biso   1.000  O
  C179     1.0000 0.67347  0.56869  0.74913  Biso   1.000  C
  C180     1.0000 0.57397  0.51908  0.79995  Biso   1.000  C
  C181     1.0000 0.84508  0.46423  0.73765  Biso   1.000  C
  C182     1.0000 0.73851  0.55304  0.71875  Biso   1.000  C
  C183     1.0000 0.65090  0.63497  0.75740  Biso   1.000  C
  H105     1.0000 0.54775  0.47939  0.81410  Biso   1.000  H
  C184     1.0000 0.55268  0.58607  0.80797  Biso   1.000  C
  C185     1.0000 0.88356  0.49483  0.76717  Biso   1.000  C
  C186     1.0000 0.87931  0.42148  0.70806  Biso   1.000  C
  H106     1.0000 0.77473  0.58602  0.72020  Biso   1.000  H
  H107     1.0000 0.72536  0.55997  0.68371  Biso   1.000  H
  C187     1.0000 0.59004  0.64492  0.78703  Biso   1.000  C
  H108     1.0000 0.67702  0.67440  0.74281  Biso   1.000  H
  H109     1.0000 0.51143  0.59200  0.82828  Biso   1.000  H
  C188     1.0000 0.95747  0.48217  0.76676  Biso   1.000  C
  H110     1.0000 0.85967  0.52390  0.78718  Biso   1.000  H
  H111     1.0000 0.85226  0.40168  0.68760  Biso   1.000  H
  C189     1.0000 0.95385  0.40807  0.70895  Biso   1.000  C
  C190     1.0000 0.56683  0.71629  0.79680  Biso   1.000  C
  C191     1.0000 0.99299  0.43843  0.73780  Biso   1.000  C
  C192     1.0000 0.00709  0.50831  0.79873  Biso   1.000  C
  H112     1.0000 0.97766  0.37792  0.68968  Biso   1.000  H
  C193     1.0000 0.54784  0.72228  0.84514  Biso   1.000  C
  C194     1.0000 0.56183  0.77798  0.75822  Biso   1.000  C
  C195     1.0000 0.07395  0.42876  0.74489  Biso   1.000  C
  H113     1.0000 0.98125  0.53922  0.81930  Biso   1.000  H
  C196     1.0000 0.06339  0.54576  0.76364  Biso   1.000  C
  C197     1.0000 0.04548  0.44073  0.82966  Biso   1.000  C
  H114     1.0000 0.54974  0.68077  0.87161  Biso   1.000  H
  C198     1.0000 0.52620  0.78811  0.85461  Biso   1.000  C
  C199     1.0000 0.54119  0.84457  0.76743  Biso   1.000  C
  H115     1.0000 0.57275  0.77431  0.72510  Biso   1.000  H
  H116     1.0000 0.09985  0.39782  0.72429  Biso   1.000  H
  C200     1.0000 0.09916  0.50302  0.73405  Biso   1.000  C
  C201     1.0000 0.08236  0.39766  0.80084  Biso   1.000  C
  C202     1.0000 0.07977  0.61459  0.75870  Biso   1.000  C
  C203     1.0000 0.04280  0.41829  0.88056  Biso   1.000  C
  C204     1.0000 0.52432  0.84798  0.81607  Biso   1.000  C
  C205     1.0000 0.50365  0.79878  0.90473  Biso   1.000  C
  H117     1.0000 0.53864  0.88651  0.74122  Biso   1.000  H
  C206     1.0000 0.15145  0.53019  0.69978  Biso   1.000  C
  C207     1.0000 0.11897  0.33354  0.82360  Biso   1.000  C
  H118     1.0000 0.05514  0.64380  0.77831  Biso   1.000  H
  C208     1.0000 0.13299  0.64086  0.72466  Biso   1.000  C
  H119     1.0000 0.01745  0.44749  0.89990  Biso   1.000  H
  C209     1.0000 0.07744  0.35266  0.90347  Biso   1.000  C
  O27      1.0000 0.50387  0.91537  0.82520  Biso   1.000  O
  N14      1.0000 0.52447  0.86892  0.90915  Biso   1.000  N
  H120     1.0000 0.52714  0.75997  0.93072  Biso   1.000  H
  H121     1.0000 0.45113  0.79769  0.90929  Biso   1.000  H
  C210     1.0000 0.16900  0.59983  0.69518  Biso   1.000  C
  H122     1.0000 0.17526  0.50157  0.67951  Biso   1.000  H
  C211     1.0000 0.11621  0.31037  0.87529  Biso   1.000  C
  H123     1.0000 0.14583  0.30530  0.80419  Biso   1.000  H
  N15      1.0000 0.15014  0.71224  0.72314  Biso   1.000  N
  N16      1.0000 0.06830  0.32727  0.95604  Biso   1.000  N
  C212     1.0000 0.51966  0.92669  0.87083  Biso   1.000  C
  C213     1.0000 0.55402  0.87251  0.95511  Biso   1.000  C
  H124     1.0000 0.20516  0.61869  0.67209  Biso   1.000  H
  H125     1.0000 0.14073  0.26598  0.89121  Biso   1.000  H
  C214     1.0000 0.13124  0.76615  0.68415  Biso   1.000  C
  C215     1.0000 0.18572  0.72280  0.76661  Biso   1.000  C
  C216     1.0000 0.12167  0.32959  0.98615  Biso   1.000  C
  C217     1.0000 0.00045  0.29779  0.97534  Biso   1.000  C
  O28      1.0000 0.52972  0.98673  0.87250  Biso   1.000  O
  C218     1.0000 0.61930  0.83257  0.96877  Biso   1.000  C
  C219     1.0000 0.51795  0.91082  0.98663  Biso   1.000  C
  O29      1.0000 0.10973  0.76027  0.64506  Biso   1.000  O
  O30      1.0000 0.13618  0.83419  0.69032  Biso   1.000  O
  C220     1.0000 0.15480  0.79208  0.77779  Biso   1.000  C
  H126     1.0000 0.17822  0.68281  0.79561  Biso   1.000  H
  H127     1.0000 0.23782  0.72381  0.75971  Biso   1.000  H
  O31      1.0000 0.17927  0.35092  0.97360  Biso   1.000  O
  O32      1.0000 0.10762  0.30376  0.03638  Biso   1.000  O
  H128     1.0000 0.96187  0.31760  0.95129  Biso   1.000  H
  C221     1.0000 0.98141  0.31710  0.02368  Biso   1.000  C
  H129     1.0000 0.00586  0.24529  0.98028  Biso   1.000  H
  H130     1.0000 0.64326  0.80488  0.94791  Biso   1.000  H
  C222     1.0000 0.64802  0.83409  0.01292  Biso   1.000  C
  H131     1.0000 0.47214  0.93551  0.97802  Biso   1.000  H
  C223     1.0000 0.54911  0.91312  0.03137  Biso   1.000  C
  C224     1.0000 0.12954  0.84520  0.73810  Biso   1.000  C
  C225     1.0000 0.14721  0.80393  0.82475  Biso   1.000  C
  C226     1.0000 0.03760  0.31887  0.05313  Biso   1.000  C
  C227     1.0000 0.91220  0.33840  0.03839  Biso   1.000  C
  C228     1.0000 0.71612  0.79131  0.03415  Biso   1.000  C
  C229     1.0000 0.61520  0.87593  0.04351  Biso   1.000  C
  H132     1.0000 0.52499  0.93981  0.05290  Biso   1.000  H
  C230     1.0000 0.09758  0.91134  0.74452  Biso   1.000  C
  C231     1.0000 0.11575  0.86856  0.83318  Biso   1.000  C
  H133     1.0000 0.16393  0.76722  0.85219  Biso   1.000  H
  C232     1.0000 0.02822  0.33608  0.09835  Biso   1.000  C
  C233     1.0000 0.90100  0.36021  0.08275  Biso   1.000  C
  H134     1.0000 0.87279  0.33819  0.01819  Biso   1.000  H
  H135     1.0000 0.73948  0.76101  0.01229  Biso   1.000  H
  C234     1.0000 0.76410  0.84427  0.04399  Biso   1.000  C
  C235     1.0000 0.69364  0.74783  0.08509  Biso   1.000  C
  C236     1.0000 0.65552  0.86955  0.09107  Biso   1.000  C
  H136     1.0000 0.08147  0.94799  0.71679  Biso   1.000  H
  C237     1.0000 0.09028  0.92153  0.79208  Biso   1.000  C
  C238     1.0000 0.10454  0.87643  0.88483  Biso   1.000  C
  C239     1.0000 0.95960  0.35649  0.11279  Biso   1.000  C
  H137     1.0000 0.06773  0.33412  0.11899  Biso   1.000  H
  C240     1.0000 0.82990  0.38921  0.09887  Biso   1.000  C
  C241     1.0000 0.83383  0.85084  0.02699  Biso   1.000  C
  C242     1.0000 0.73188  0.88634  0.07481  Biso   1.000  C
  C243     1.0000 0.69987  0.67470  0.10039  Biso   1.000  C
  C244     1.0000 0.66104  0.78999  0.11595  Biso   1.000  C
  H138     1.0000 0.63199  0.90011  0.11279  Biso   1.000  H
  H139     1.0000 0.06753  0.96541  0.79709  Biso   1.000  H
  C245     1.0000 0.03846  0.90465  0.90053  Biso   1.000  C
  C246     1.0000 0.15780  0.85192  0.91980  Biso   1.000  C
  H140     1.0000 0.95203  0.36837  0.14402  Biso   1.000  H
  C247     1.0000 0.82518  0.44416  0.12352  Biso   1.000  C
  C248     1.0000 0.76602  0.36291  0.09033  Biso   1.000  C
  H141     1.0000 0.85510  0.82208  0.00590  Biso   1.000  H
  C249     1.0000 0.87259  0.89963  0.04099  Biso   1.000  C
  C250     1.0000 0.77027  0.93616  0.08806  Biso   1.000  C
  H142     1.0000 0.72143  0.64629  0.07919  Biso   1.000  H
  C251     1.0000 0.67394  0.64297  0.14754  Biso   1.000  C
  C252     1.0000 0.63545  0.75794  0.16254  Biso   1.000  C
  H143     1.0000 0.00184  0.92272  0.87699  Biso   1.000  H
  C253     1.0000 0.02508  0.90688  0.94987  Biso   1.000  C
  C254     1.0000 0.14555  0.85419  0.96888  Biso   1.000  C
  H144     1.0000 0.20334  0.83320  0.90981  Biso   1.000  H
  H145     1.0000 0.86742  0.46478  0.12790  Biso   1.000  H
  C255     1.0000 0.76013  0.46952  0.14182  Biso   1.000  C
  C256     1.0000 0.70072  0.38802  0.10722  Biso   1.000  C
  H146     1.0000 0.76788  0.32680  0.07240  Biso   1.000  H
  C257     1.0000 0.84118  0.94305  0.07043  Biso   1.000  C
  N17      1.0000 0.94517  0.90493  0.02183  Biso   1.000  N
  H147     1.0000 0.74882  0.96530  0.10878  Biso   1.000  H
  C258     1.0000 0.64230  0.68329  0.17895  Biso   1.000  C
  N18      1.0000 0.67989  0.56584  0.16076  Biso   1.000  N
  H148     1.0000 0.61331  0.78638  0.18348  Biso   1.000  H
  C259     1.0000 0.95430  0.93411  0.96799  Biso   1.000  C
  C260     1.0000 0.07892  0.88082  0.98344  Biso   1.000  C
  H149     1.0000 0.18243  0.83770  0.99231  Biso   1.000  H
  C261     1.0000 0.69952  0.43945  0.13414  Biso   1.000  C
  C262     1.0000 0.75147  0.52675  0.16978  Biso   1.000  C
  H150     1.0000 0.65770  0.37059  0.10061  Biso   1.000  H
  H151     1.0000 0.86763  0.97761  0.07878  Biso   1.000  H
  C263     1.0000 0.99967  0.88371  0.05365  Biso   1.000  C
  H152     1.0000 0.62540  0.66087  0.21111  Biso   1.000  H
  C264     1.0000 0.62197  0.53360  0.15534  Biso   1.000  C
  H153     1.0000 0.91555  0.92031  0.95028  Biso   1.000  H
  H154     1.0000 0.95078  0.98682  0.96079  Biso   1.000  H
  O33      1.0000 0.06790  0.88221  0.03315  Biso   1.000  O
  O34      1.0000 0.63335  0.46287  0.15326  Biso   1.000  O
  H155     1.0000 0.78883  0.56002  0.15868  Biso   1.000  H
  H156     1.0000 0.75700  0.50539  0.20568  Biso   1.000  H
  O35      1.0000 0.99354  0.86650  0.09850  Biso   1.000  O
  O36      1.0000 0.56094  0.56173  0.15200  Biso   1.000  O
  O37      1.0000 0.34487  0.55542  0.23806  Biso   1.000  O
  C265     1.0000 0.36511  0.48807  0.22956  Biso   1.000  C
  C266     1.0000 0.27247  0.57525  0.24400  Biso   1.000  C
  C267     1.0000 0.32659  0.43133  0.25087  Biso   1.000  C
  C268     1.0000 0.42609  0.48094  0.20004  Biso   1.000  C
  N19      1.0000 0.23164  0.52093  0.26171  Biso   1.000  N
  O38      1.0000 0.25252  0.63807  0.23283  Biso   1.000  O
  C269     1.0000 0.34915  0.36505  0.24259  Biso   1.000  C
  C270     1.0000 0.26154  0.44698  0.28124  Biso   1.000  C
  C271     1.0000 0.44738  0.41395  0.19202  Biso   1.000  C
  H157     1.0000 0.45232  0.52058  0.18590  Biso   1.000  H
  C272     1.0000 0.15493  0.53574  0.26234  Biso   1.000  C
  C273     1.0000 0.41002  0.35505  0.21296  Biso   1.000  C
  H158     1.0000 0.32303  0.32562  0.25718  Biso   1.000  H
  H159     1.0000 0.22533  0.41401  0.27979  Biso   1.000  H
  H160     1.0000 0.27470  0.44000  0.31629  Biso   1.000  H
  H161     1.0000 0.48864  0.40798  0.17172  Biso   1.000  H
  C274     1.0000 0.11650  0.50514  0.23283  Biso   1.000  C
  C275     1.0000 0.12075  0.57854  0.29193  Biso   1.000  C
  C276     1.0000 0.43323  0.28374  0.20320  Biso   1.000  C
  C277     1.0000 0.04254  0.51780  0.23324  Biso   1.000  C
  H162     1.0000 0.14039  0.47612  0.21282  Biso   1.000  H
  H163     1.0000 0.14780  0.59829  0.31239  Biso   1.000  H
  C278     1.0000 0.04620  0.59195  0.29104  Biso   1.000  C
  C279     1.0000 0.45223  0.27769  0.15486  Biso   1.000  C
  C280     1.0000 0.43823  0.22204  0.24178  Biso   1.000  C
  C281     1.0000 0.00707  0.56154  0.26220  Biso   1.000  C
  C282     1.0000 0.99298  0.49166  0.20127  Biso   1.000  C
  H164     1.0000 0.02240  0.62210  0.31031  Biso   1.000  H
  H165     1.0000 0.45033  0.31920  0.12839  Biso   1.000  H
  C283     1.0000 0.47386  0.21186  0.14539  Biso   1.000  C
  C284     1.0000 0.45887  0.15540  0.23257  Biso   1.000  C
  H166     1.0000 0.42731  0.22572  0.27489  Biso   1.000  H
  C285     1.0000 0.92610  0.57126  0.25510  Biso   1.000  C
  H167     1.0000 0.01881  0.46081  0.18070  Biso   1.000  H
  C286     1.0000 0.93667  0.45426  0.23635  Biso   1.000  C
  C287     1.0000 0.95458  0.55930  0.17034  Biso   1.000  C
  C288     1.0000 0.47574  0.15199  0.18393  Biso   1.000  C
  C289     1.0000 0.49641  0.20119  0.09527  Biso   1.000  C
  H168     1.0000 0.46142  0.11350  0.25882  Biso   1.000  H
  H169     1.0000 0.90021  0.60220  0.27571  Biso   1.000  H
  C290     1.0000 0.90090  0.49701  0.26595  Biso   1.000  C
  C291     1.0000 0.91770  0.60236  0.19915  Biso   1.000  C
  C292     1.0000 0.92024  0.38544  0.24129  Biso   1.000  C
  C293     1.0000 0.95726  0.58168  0.11944  Biso   1.000  C
  O39      1.0000 0.49619  0.08466  0.17480  Biso   1.000  O
  N20      1.0000 0.47559  0.13111  0.09085  Biso   1.000  N
  H170     1.0000 0.47292  0.23999  0.06932  Biso   1.000  H
  H171     1.0000 0.54893  0.20228  0.09070  Biso   1.000  H
  C294     1.0000 0.84861  0.46978  0.30021  Biso   1.000  C
  C295     1.0000 0.88109  0.66649  0.17639  Biso   1.000  C
  H172     1.0000 0.94492  0.35622  0.22169  Biso   1.000  H
  C296     1.0000 0.86707  0.35911  0.27534  Biso   1.000  C
  H173     1.0000 0.98262  0.55248  0.10010  Biso   1.000  H
  C297     1.0000 0.92263  0.64731  0.09653  Biso   1.000  C
  C298     1.0000 0.48040  0.07328  0.12917  Biso   1.000  C
  C299     1.0000 0.44604  0.12746  0.04489  Biso   1.000  C
  C300     1.0000 0.83106  0.40014  0.30482  Biso   1.000  C
  H174     1.0000 0.82480  0.49840  0.32049  Biso   1.000  H
  C301     1.0000 0.88385  0.68960  0.12471  Biso   1.000  C
  H175     1.0000 0.85424  0.69467  0.19581  Biso   1.000  H
  N21      1.0000 0.84992  0.28773  0.27686  Biso   1.000  N
  N22      1.0000 0.93176  0.67275  0.04396  Biso   1.000  N
  O40      1.0000 0.47034  0.01329  0.12750  Biso   1.000  O
  C302     1.0000 0.38076  0.16745  0.03122  Biso   1.000  C
  C303     1.0000 0.48211  0.08915  0.01337  Biso   1.000  C
  H176     1.0000 0.79490  0.38128  0.32791  Biso   1.000  H
  H177     1.0000 0.85928  0.73399  0.10878  Biso   1.000  H
  C304     1.0000 0.86881  0.23387  0.31585  Biso   1.000  C
  C305     1.0000 0.81434  0.27722  0.23338  Biso   1.000  C
  C306     1.0000 0.87840  0.67038  0.01385  Biso   1.000  C
  C307     1.0000 0.99961  0.70218  0.02465  Biso   1.000  C
  H178     1.0000 0.35680  0.19509  0.05209  Biso   1.000  H
  C308     1.0000 0.35199  0.16587  0.98712  Biso   1.000  C
  H179     1.0000 0.52792  0.06450  0.02202  Biso   1.000  H
  C309     1.0000 0.45095  0.08690  0.96863  Biso   1.000  C
  O41      1.0000 0.89033  0.23975  0.35494  Biso   1.000  O
  O42      1.0000 0.86387  0.16583  0.30968  Biso   1.000  O
  C310     1.0000 0.84526  0.20794  0.22221  Biso   1.000  C
  H180     1.0000 0.82183  0.31721  0.20439  Biso   1.000  H
  H181     1.0000 0.76224  0.27621  0.24029  Biso   1.000  H
  O43      1.0000 0.89243  0.69627  0.96361  Biso   1.000  O
  O44      1.0000 0.82079  0.64906  0.02640  Biso   1.000  O
  H182     1.0000 0.03819  0.68242  0.04871  Biso   1.000  H
  H183     1.0000 0.99420  0.75468  0.01971  Biso   1.000  H
  C311     1.0000 0.01864  0.68292  0.97631  Biso   1.000  C
  C312     1.0000 0.28394  0.20871  0.96584  Biso   1.000  C
  C313     1.0000 0.38486  0.12404  0.95649  Biso   1.000  C
  H184     1.0000 0.47507  0.06021  0.94709  Biso   1.000  H
  C314     1.0000 0.87053  0.15477  0.26190  Biso   1.000  C
  C315     1.0000 0.85285  0.19604  0.17524  Biso   1.000  C
  C316     1.0000 0.96246  0.68110  0.94687  Biso   1.000  C
  C317     1.0000 0.08786  0.66162  0.96161  Biso   1.000  C
  H185     1.0000 0.26053  0.23902  0.98771  Biso   1.000  H
  C318     1.0000 0.23597  0.15570  0.95600  Biso   1.000  C
  C319     1.0000 0.30636  0.25219  0.91490  Biso   1.000  C
  C320     1.0000 0.34454  0.13042  0.90893  Biso   1.000  C
  C321     1.0000 0.90248  0.08869  0.25548  Biso   1.000  C
  C322     1.0000 0.88430  0.13146  0.16681  Biso   1.000  C
  H186     1.0000 0.83613  0.23280  0.14781  Biso   1.000  H
  C323     1.0000 0.97184  0.66389  0.90165  Biso   1.000  C
  C324     1.0000 0.09906  0.63982  0.91724  Biso   1.000  C
  H187     1.0000 0.12727  0.66178  0.98181  Biso   1.000  H
  C325     1.0000 0.16623  0.14918  0.97301  Biso   1.000  C
  C326     1.0000 0.26818  0.11369  0.92519  Biso   1.000  C
  C327     1.0000 0.30019  0.32532  0.89961  Biso   1.000  C
  C328     1.0000 0.33902  0.21003  0.88405  Biso   1.000  C
  H188     1.0000 0.36807  0.09991  0.88721  Biso   1.000  H
  H189     1.0000 0.91859  0.05198  0.28321  Biso   1.000  H
  C329     1.0000 0.90978  0.07844  0.20792  Biso   1.000  C
  C330     1.0000 0.89552  0.12354  0.11517  Biso   1.000  C
  H190     1.0000 0.93233  0.66590  0.88101  Biso   1.000  H
  C331     1.0000 0.04046  0.64348  0.88721  Biso   1.000  C
  C332     1.0000 0.17016  0.61081  0.90113  Biso   1.000  C
  H191     1.0000 0.14496  0.17789  0.99410  Biso   1.000  H
  C333     1.0000 0.12746  0.10038  0.95905  Biso   1.000  C
  C334     1.0000 0.22975  0.06381  0.91193  Biso   1.000  C
  H192     1.0000 0.27863  0.35368  0.92081  Biso   1.000  H
  C335     1.0000 0.32612  0.35705  0.85245  Biso   1.000  C
  C336     1.0000 0.36462  0.24203  0.83745  Biso   1.000  C
  H193     1.0000 0.93253  0.03461  0.20290  Biso   1.000  H
  C337     1.0000 0.96160  0.09538  0.09947  Biso   1.000  C
  C338     1.0000 0.84226  0.14811  0.08020  Biso   1.000  C
  H194     1.0000 0.04804  0.63160  0.85598  Biso   1.000  H
  C339     1.0000 0.17488  0.55586  0.87648  Biso   1.000  C
  C340     1.0000 0.23404  0.63712  0.90967  Biso   1.000  C
  C341     1.0000 0.15888  0.05697  0.92957  Biso   1.000  C
  N23      1.0000 0.05489  0.09510  0.97817  Biso   1.000  N
  H195     1.0000 0.25124  0.03472  0.89122  Biso   1.000  H
  C342     1.0000 0.35776  0.31674  0.82104  Biso   1.000  C
  N24      1.0000 0.32017  0.43419  0.83924  Biso   1.000  N
  H196     1.0000 0.38675  0.21359  0.81651  Biso   1.000  H
  C343     1.0000 0.97498  0.09309  0.05012  Biso   1.000  C
  H197     1.0000 0.99822  0.07730  0.12300  Biso   1.000  H
  C344     1.0000 0.85451  0.14578  0.03111  Biso   1.000  C
  H198     1.0000 0.79672  0.16682  0.09018  Biso   1.000  H
  C345     1.0000 0.23994  0.53046  0.85817  Biso   1.000  C
  H199     1.0000 0.13265  0.53519  0.87210  Biso   1.000  H
  C346     1.0000 0.29934  0.61200  0.89278  Biso   1.000  C
  H200     1.0000 0.23212  0.67322  0.92760  Biso   1.000  H
  H201     1.0000 0.13243  0.02242  0.92122  Biso   1.000  H
  C347     1.0000 0.04576  0.06591  0.03200  Biso   1.000  C
  C348     1.0000 0.00039  0.11631  0.94635  Biso   1.000  C
  H202     1.0000 0.37467  0.33910  0.78889  Biso   1.000  H
  C349     1.0000 0.37809  0.46643  0.84466  Biso   1.000  C
  C350     1.0000 0.24860  0.47322  0.83022  Biso   1.000  C
  C351     1.0000 0.92114  0.11920  0.01656  Biso   1.000  C
  H203     1.0000 0.81757  0.16232  0.00769  Biso   1.000  H
  C352     1.0000 0.30054  0.56052  0.86586  Biso   1.000  C
  H204     1.0000 0.34236  0.62943  0.89938  Biso   1.000  H
  H205     1.0000 0.08451  0.07971  0.04971  Biso   1.000  H
  H206     1.0000 0.04928  0.01320  0.03921  Biso   1.000  H
  O45      1.0000 0.93216  0.11782  0.96684  Biso   1.000  O
  O46      1.0000 0.00652  0.13347  0.90150  Biso   1.000  O
  O47      1.0000 0.43913  0.43824  0.84800  Biso   1.000  O
  O48      1.0000 0.36672  0.53710  0.84674  Biso   1.000  O
  H207     1.0000 0.21123  0.44001  0.84132  Biso   1.000  H
  H208     1.0000 0.24306  0.49458  0.79431  Biso   1.000  H
