data_image0
_cell_length_a       15.391
_cell_length_b       18.641
_cell_length_c       12.872
_cell_angle_alpha    90
_cell_angle_beta     95.93
_cell_angle_gamma    90

_symmetry_space_group_name_H-M    "P 1"
_symmetry_int_tables_number       1

loop_
  _symmetry_equiv_pos_as_xyz
  'x, y, z'

loop_
  _atom_site_label
  _atom_site_occupancy
  _atom_site_fract_x
  _atom_site_fract_y
  _atom_site_fract_z
  _atom_site_thermal_displace_type
  _atom_site_B_iso_or_equiv
  _atom_site_type_symbol
  O1       1.0000 0.11635  0.35535  0.25252  Biso   1.000  O
  C1       1.0000 0.04631  0.33045  0.21792  Biso   1.000  C
  N1       1.0000 0.96874  0.33909  0.25939  Biso   1.000  N
  N2       1.0000 0.03207  0.28850  0.13130  Biso   1.000  N
  N3       1.0000 0.03214  0.28850  0.13130  Biso   1.000  N
  C2       1.0000 0.90008  0.29505  0.20768  Biso   1.000  C
  C3       1.0000 0.96394  0.36951  0.36171  Biso   1.000  C
  C4       1.0000 0.94388  0.26066  0.11599  Biso   1.000  C
  C5       1.0000 0.10297  0.25830  0.07881  Biso   1.000  C
  C6       1.0000 0.10303  0.25830  0.07881  Biso   1.000  C
  H1       1.0000 0.02229  0.37192  0.39787  Biso   1.000  H
  H2       1.0000 0.92948  0.33802  0.40131  Biso   1.000  H
  N4       1.0000 0.92534  0.44112  0.35866  Biso   1.000  N
  N5       1.0000 0.92535  0.44112  0.35874  Biso   1.000  N
  N6       1.0000 0.82709  0.33346  0.15543  Biso   1.000  N
  H3       1.0000 0.88084  0.25841  0.25494  Biso   1.000  H
  H4       1.0000 0.94299  0.20809  0.11927  Biso   1.000  H
  N7       1.0000 0.89104  0.28727  0.02484  Biso   1.000  N
  H5       1.0000 0.94300  0.20809  0.11935  Biso   1.000  H
  H6       1.0000 0.09510  0.20680  0.07342  Biso   1.000  H
  H7       1.0000 0.15772  0.26710  0.12138  Biso   1.000  H
  N8       1.0000 0.10896  0.28727  0.97516  Biso   1.000  N
  N9       1.0000 0.10896  0.28727  0.97524  Biso   1.000  N
  C7       1.0000 0.97652  0.50003  0.36663  Biso   1.000  C
  C8       1.0000 0.83193  0.45727  0.35062  Biso   1.000  C
  C9       1.0000 0.76212  0.36919  0.21042  Biso   1.000  C
  C10      1.0000 0.82019  0.32536  0.04928  Biso   1.000  C
  C11      1.0000 0.89703  0.25830  0.92119  Biso   1.000  C
  C12      1.0000 0.05612  0.26066  0.88401  Biso   1.000  C
  C13      1.0000 0.17981  0.32536  0.95072  Biso   1.000  C
  O2       1.0000 0.05642  0.50003  0.37920  Biso   1.000  O
  N10      1.0000 0.92534  0.55888  0.35866  Biso   1.000  N
  N11      1.0000 0.92535  0.55888  0.35874  Biso   1.000  N
  C14      1.0000 0.83193  0.54273  0.35062  Biso   1.000  C
  C15      1.0000 0.78899  0.42219  0.43942  Biso   1.000  C
  N12      1.0000 0.78652  0.44075  0.24838  Biso   1.000  N
  H8       1.0000 0.70842  0.37273  0.16418  Biso   1.000  H
  H9       1.0000 0.75027  0.33968  0.26947  Biso   1.000  H
  H10      1.0000 0.75034  0.33968  0.26954  Biso   1.000  H
  O3       1.0000 0.76051  0.34644  0.98867  Biso   1.000  O
  H11      1.0000 0.90490  0.20680  0.92658  Biso   1.000  H
  H12      1.0000 0.84228  0.26710  0.87862  Biso   1.000  H
  N13      1.0000 0.96793  0.28850  0.86870  Biso   1.000  N
  C16      1.0000 0.09992  0.29505  0.79232  Biso   1.000  C
  H13      1.0000 0.05701  0.20809  0.88073  Biso   1.000  H
  N14      1.0000 0.17292  0.33346  0.84465  Biso   1.000  N
  O4       1.0000 0.23949  0.34644  0.01133  Biso   1.000  O
  O5       1.0000 0.23956  0.34644  0.01133  Biso   1.000  O
  C17      1.0000 0.96394  0.63049  0.36171  Biso   1.000  C
  C18      1.0000 0.78899  0.57781  0.43942  Biso   1.000  C
  N15      1.0000 0.78652  0.55925  0.24838  Biso   1.000  N
  H14      1.0000 0.82078  0.43469  0.50503  Biso   1.000  H
  H15      1.0000 0.72977  0.43892  0.43833  Biso   1.000  H
  H16      1.0000 0.78923  0.37112  0.43091  Biso   1.000  H
  H17      1.0000 0.82084  0.43469  0.50503  Biso   1.000  H
  H18      1.0000 0.72984  0.43892  0.43833  Biso   1.000  H
  C19      1.0000 0.75721  0.50003  0.19417  Biso   1.000  C
  C20      1.0000 0.95369  0.33045  0.78208  Biso   1.000  C
  N16      1.0000 0.03126  0.33909  0.74061  Biso   1.000  N
  H19      1.0000 0.11923  0.25841  0.74514  Biso   1.000  H
  C21      1.0000 0.23788  0.36919  0.78958  Biso   1.000  C
  H20      1.0000 0.02229  0.62808  0.39787  Biso   1.000  H
  H21      1.0000 0.92948  0.66198  0.40131  Biso   1.000  H
  N17      1.0000 0.96874  0.66091  0.25939  Biso   1.000  N
  H22      1.0000 0.82078  0.56531  0.50503  Biso   1.000  H
  H23      1.0000 0.72977  0.56108  0.43833  Biso   1.000  H
  H24      1.0000 0.78923  0.62888  0.43091  Biso   1.000  H
  H25      1.0000 0.82084  0.56531  0.50503  Biso   1.000  H
  H26      1.0000 0.72984  0.56108  0.43833  Biso   1.000  H
  C22      1.0000 0.76212  0.63081  0.21042  Biso   1.000  C
  O6       1.0000 0.71342  0.50003  0.10997  Biso   1.000  O
  O7       1.0000 0.88365  0.35535  0.74748  Biso   1.000  O
  C23      1.0000 0.03612  0.36951  0.63829  Biso   1.000  C
  H27      1.0000 0.24973  0.33968  0.73053  Biso   1.000  H
  N18      1.0000 0.21348  0.44075  0.75162  Biso   1.000  N
  H28      1.0000 0.29164  0.37273  0.83582  Biso   1.000  H
  C24      1.0000 0.04631  0.66955  0.21792  Biso   1.000  C
  C25      1.0000 0.90008  0.70495  0.20768  Biso   1.000  C
  H29      1.0000 0.70842  0.62727  0.16418  Biso   1.000  H
  H30      1.0000 0.75027  0.66032  0.26947  Biso   1.000  H
  N19      1.0000 0.82709  0.66654  0.15543  Biso   1.000  N
  H31      1.0000 0.75034  0.66032  0.26954  Biso   1.000  H
  H32      1.0000 0.97771  0.37192  0.60213  Biso   1.000  H
  H33      1.0000 0.07052  0.33802  0.59869  Biso   1.000  H
  N20      1.0000 0.07466  0.44112  0.64134  Biso   1.000  N
  C26      1.0000 0.24279  0.50003  0.80583  Biso   1.000  C
  C27      1.0000 0.16813  0.45727  0.64938  Biso   1.000  C
  O8       1.0000 0.11635  0.64465  0.25252  Biso   1.000  O
  N21      1.0000 0.03207  0.71150  0.13130  Biso   1.000  N
  N22      1.0000 0.03214  0.71150  0.13130  Biso   1.000  N
  C28      1.0000 0.94388  0.73934  0.11599  Biso   1.000  C
  H34      1.0000 0.88084  0.74159  0.25494  Biso   1.000  H
  C29      1.0000 0.82019  0.67464  0.04928  Biso   1.000  C
  C30      1.0000 0.02348  0.50003  0.63337  Biso   1.000  C
  C31      1.0000 0.21101  0.42219  0.56058  Biso   1.000  C
  C32      1.0000 0.16813  0.54273  0.64938  Biso   1.000  C
  N23      1.0000 0.21348  0.55925  0.75162  Biso   1.000  N
  O9       1.0000 0.28658  0.50003  0.89003  Biso   1.000  O
  C33      1.0000 0.10297  0.74170  0.07881  Biso   1.000  C
  C34      1.0000 0.10303  0.74170  0.07881  Biso   1.000  C
  H35      1.0000 0.94299  0.79191  0.11927  Biso   1.000  H
  N24      1.0000 0.89104  0.71273  0.02484  Biso   1.000  N
  H36      1.0000 0.94300  0.79191  0.11935  Biso   1.000  H
  O10      1.0000 0.76051  0.65356  0.98867  Biso   1.000  O
  O11      1.0000 0.94358  0.50003  0.62080  Biso   1.000  O
  N25      1.0000 0.07466  0.55888  0.64134  Biso   1.000  N
  C35      1.0000 0.21101  0.57781  0.56058  Biso   1.000  C
  H37      1.0000 0.17922  0.43469  0.49497  Biso   1.000  H
  H38      1.0000 0.27023  0.43892  0.56167  Biso   1.000  H
  H39      1.0000 0.17923  0.43469  0.49504  Biso   1.000  H
  H40      1.0000 0.27024  0.43892  0.56175  Biso   1.000  H
  H41      1.0000 0.21083  0.37112  0.56909  Biso   1.000  H
  C36      1.0000 0.23788  0.63081  0.78958  Biso   1.000  C
  H42      1.0000 0.09510  0.79320  0.07342  Biso   1.000  H
  H43      1.0000 0.15772  0.73290  0.12138  Biso   1.000  H
  N26      1.0000 0.10896  0.71273  0.97516  Biso   1.000  N
  N27      1.0000 0.10896  0.71273  0.97524  Biso   1.000  N
  C37      1.0000 0.89703  0.74170  0.92119  Biso   1.000  C
  C38      1.0000 0.03612  0.63049  0.63829  Biso   1.000  C
  H44      1.0000 0.17922  0.56531  0.49497  Biso   1.000  H
  H45      1.0000 0.27023  0.56108  0.56167  Biso   1.000  H
  H46      1.0000 0.17923  0.56531  0.49504  Biso   1.000  H
  H47      1.0000 0.27024  0.56108  0.56175  Biso   1.000  H
  H48      1.0000 0.21083  0.62888  0.56909  Biso   1.000  H
  H49      1.0000 0.24973  0.66032  0.73053  Biso   1.000  H
  H50      1.0000 0.29164  0.62727  0.83582  Biso   1.000  H
  N28      1.0000 0.17292  0.66654  0.84465  Biso   1.000  N
  C39      1.0000 0.05612  0.73934  0.88401  Biso   1.000  C
  C40      1.0000 0.17981  0.67464  0.95072  Biso   1.000  C
  H51      1.0000 0.90490  0.79320  0.92658  Biso   1.000  H
  H52      1.0000 0.84228  0.73290  0.87862  Biso   1.000  H
  N29      1.0000 0.96793  0.71150  0.86870  Biso   1.000  N
  H53      1.0000 0.97771  0.62808  0.60213  Biso   1.000  H
  H54      1.0000 0.07052  0.66198  0.59869  Biso   1.000  H
  N30      1.0000 0.03126  0.66091  0.74061  Biso   1.000  N
  C41      1.0000 0.09992  0.70495  0.79232  Biso   1.000  C
  H55      1.0000 0.05701  0.79191  0.88073  Biso   1.000  H
  O12      1.0000 0.23949  0.65356  0.01133  Biso   1.000  O
  O13      1.0000 0.23956  0.65356  0.01133  Biso   1.000  O
  C42      1.0000 0.95369  0.66955  0.78208  Biso   1.000  C
  H56      1.0000 0.11923  0.74159  0.74514  Biso   1.000  H
  O14      1.0000 0.88365  0.64465  0.74748  Biso   1.000  O
  O15      1.0000 0.38367  0.14463  0.74747  Biso   1.000  O
  C43      1.0000 0.45371  0.16957  0.78207  Biso   1.000  C
  N31      1.0000 0.53121  0.16094  0.74060  Biso   1.000  N
  N32      1.0000 0.53128  0.16094  0.74060  Biso   1.000  N
  N33      1.0000 0.46789  0.21152  0.86869  Biso   1.000  N
  C44      1.0000 0.53608  0.13052  0.63828  Biso   1.000  C
  C45      1.0000 0.59987  0.20498  0.79231  Biso   1.000  C
  C46      1.0000 0.55608  0.23936  0.88400  Biso   1.000  C
  C47      1.0000 0.39699  0.24173  0.92118  Biso   1.000  C
  H57      1.0000 0.57047  0.16201  0.59868  Biso   1.000  H
  N34      1.0000 0.57461  0.05885  0.64133  Biso   1.000  N
  H58      1.0000 0.47773  0.12810  0.60212  Biso   1.000  H
  N35      1.0000 0.57468  0.05885  0.64133  Biso   1.000  N
  H59      1.0000 0.61919  0.24162  0.74513  Biso   1.000  H
  N36      1.0000 0.67294  0.16651  0.84464  Biso   1.000  N
  H60      1.0000 0.55696  0.29188  0.88072  Biso   1.000  H
  N37      1.0000 0.60891  0.21270  0.97515  Biso   1.000  N
  H61      1.0000 0.55703  0.29188  0.88072  Biso   1.000  H
  N38      1.0000 0.60899  0.21270  0.97523  Biso   1.000  N
  H62      1.0000 0.34231  0.23287  0.87861  Biso   1.000  H
  H63      1.0000 0.40486  0.29322  0.92657  Biso   1.000  H
  H64      1.0000 0.40492  0.29322  0.92657  Biso   1.000  H
  N39      1.0000 0.39106  0.21270  0.02483  Biso   1.000  N
  C48      1.0000 0.52351  0.00000  0.63336  Biso   1.000  C
  C49      1.0000 0.66809  0.04276  0.64937  Biso   1.000  C
  C50      1.0000 0.73790  0.13079  0.78957  Biso   1.000  C
  C51      1.0000 0.67983  0.17462  0.95071  Biso   1.000  C
  C52      1.0000 0.60299  0.24173  0.07880  Biso   1.000  C
  C53      1.0000 0.44390  0.23936  0.11598  Biso   1.000  C
  C54      1.0000 0.32021  0.17462  0.04928  Biso   1.000  C
  O16      1.0000 0.44361  0.00000  0.62079  Biso   1.000  O
  N40      1.0000 0.57461  0.94115  0.64133  Biso   1.000  N
  N41      1.0000 0.57468  0.94115  0.64133  Biso   1.000  N
  C55      1.0000 0.71097  0.07779  0.56057  Biso   1.000  C
  N42      1.0000 0.71344  0.05928  0.75161  Biso   1.000  N
  C56      1.0000 0.66809  0.95724  0.64937  Biso   1.000  C
  H65      1.0000 0.79160  0.12730  0.83581  Biso   1.000  H
  H66      1.0000 0.74969  0.16029  0.73053  Biso   1.000  H
  O17      1.0000 0.73952  0.15353  0.01132  Biso   1.000  O
  H67      1.0000 0.59512  0.29322  0.07341  Biso   1.000  H
  H68      1.0000 0.65767  0.23287  0.12137  Biso   1.000  H
  N43      1.0000 0.53209  0.21152  0.13129  Biso   1.000  N
  C57      1.0000 0.40011  0.20498  0.20767  Biso   1.000  C
  H69      1.0000 0.44302  0.29188  0.11934  Biso   1.000  H
  O18      1.0000 0.26046  0.15353  0.98867  Biso   1.000  O
  N44      1.0000 0.32704  0.16651  0.15542  Biso   1.000  N
  N45      1.0000 0.32711  0.16651  0.15542  Biso   1.000  N
  C58      1.0000 0.53608  0.86948  0.63828  Biso   1.000  C
  H70      1.0000 0.71079  0.12891  0.56908  Biso   1.000  H
  H71      1.0000 0.67918  0.06529  0.49496  Biso   1.000  H
  H72      1.0000 0.77019  0.06110  0.56166  Biso   1.000  H
  H73      1.0000 0.67918  0.06529  0.49504  Biso   1.000  H
  H74      1.0000 0.77019  0.06110  0.56174  Biso   1.000  H
  C59      1.0000 0.74281  0.00000  0.80582  Biso   1.000  C
  C60      1.0000 0.71097  0.92221  0.56057  Biso   1.000  C
  N46      1.0000 0.71344  0.94072  0.75161  Biso   1.000  N
  C61      1.0000 0.54627  0.16957  0.21791  Biso   1.000  C
  H75      1.0000 0.38080  0.24162  0.25493  Biso   1.000  H
  N47      1.0000 0.46877  0.16094  0.25938  Biso   1.000  N
  C62      1.0000 0.26208  0.13079  0.21041  Biso   1.000  C
  H76      1.0000 0.57047  0.83799  0.59868  Biso   1.000  H
  N48      1.0000 0.53121  0.83906  0.74060  Biso   1.000  N
  H77      1.0000 0.47773  0.87190  0.60212  Biso   1.000  H
  N49      1.0000 0.53128  0.83906  0.74060  Biso   1.000  N
  O19      1.0000 0.78660  0.00000  0.89002  Biso   1.000  O
  H78      1.0000 0.67918  0.93471  0.49496  Biso   1.000  H
  H79      1.0000 0.77019  0.93890  0.56166  Biso   1.000  H
  H80      1.0000 0.71079  0.87109  0.56908  Biso   1.000  H
  H81      1.0000 0.67918  0.93471  0.49504  Biso   1.000  H
  H82      1.0000 0.77019  0.93890  0.56174  Biso   1.000  H
  C63      1.0000 0.73790  0.86921  0.78957  Biso   1.000  C
  O20      1.0000 0.61638  0.14463  0.25251  Biso   1.000  O
  C64      1.0000 0.46390  0.13052  0.36170  Biso   1.000  C
  H83      1.0000 0.20838  0.12730  0.16417  Biso   1.000  H
  H84      1.0000 0.25029  0.16029  0.26946  Biso   1.000  H
  N50      1.0000 0.28654  0.05928  0.24837  Biso   1.000  N
  H85      1.0000 0.25029  0.16029  0.26953  Biso   1.000  H
  C65      1.0000 0.45371  0.83043  0.78207  Biso   1.000  C
  C66      1.0000 0.59987  0.79502  0.79231  Biso   1.000  C
  H86      1.0000 0.79160  0.87270  0.83581  Biso   1.000  H
  H87      1.0000 0.74969  0.83971  0.73053  Biso   1.000  H
  N51      1.0000 0.67294  0.83349  0.84464  Biso   1.000  N
  H88      1.0000 0.42951  0.16201  0.40130  Biso   1.000  H
  H89      1.0000 0.52231  0.12810  0.39786  Biso   1.000  H
  N52      1.0000 0.42537  0.05885  0.35865  Biso   1.000  N
  N53      1.0000 0.42537  0.05885  0.35873  Biso   1.000  N
  C67      1.0000 0.33189  0.04276  0.35061  Biso   1.000  C
  C68      1.0000 0.25717  0.00000  0.19416  Biso   1.000  C
  N54      1.0000 0.46789  0.78848  0.86869  Biso   1.000  N
  O21      1.0000 0.38367  0.85537  0.74747  Biso   1.000  O
  C69      1.0000 0.55608  0.76064  0.88400  Biso   1.000  C
  H90      1.0000 0.61919  0.75838  0.74513  Biso   1.000  H
  C70      1.0000 0.67983  0.82538  0.95071  Biso   1.000  C
  C71      1.0000 0.47647  0.00000  0.36662  Biso   1.000  C
  C72      1.0000 0.33189  0.95724  0.35061  Biso   1.000  C
  C73      1.0000 0.28901  0.07779  0.43941  Biso   1.000  C
  N55      1.0000 0.28654  0.94072  0.24837  Biso   1.000  N
  O22      1.0000 0.21338  0.00000  0.10996  Biso   1.000  O
  C74      1.0000 0.39699  0.75827  0.92118  Biso   1.000  C
  H91      1.0000 0.55696  0.70812  0.88072  Biso   1.000  H
  N56      1.0000 0.60891  0.78730  0.97515  Biso   1.000  N
  H92      1.0000 0.55703  0.70812  0.88072  Biso   1.000  H
  N57      1.0000 0.60899  0.78730  0.97523  Biso   1.000  N
  O23      1.0000 0.73952  0.84647  0.01132  Biso   1.000  O
  N58      1.0000 0.42537  0.94115  0.35865  Biso   1.000  N
  N59      1.0000 0.42537  0.94115  0.35873  Biso   1.000  N
  O24      1.0000 0.55637  0.00000  0.37920  Biso   1.000  O
  C75      1.0000 0.28901  0.92221  0.43941  Biso   1.000  C
  H93      1.0000 0.32080  0.06529  0.50502  Biso   1.000  H
  H94      1.0000 0.22979  0.06110  0.43832  Biso   1.000  H
  H95      1.0000 0.28919  0.12891  0.43090  Biso   1.000  H
  C76      1.0000 0.26208  0.86921  0.21041  Biso   1.000  C
  H96      1.0000 0.40486  0.70678  0.92657  Biso   1.000  H
  H97      1.0000 0.34231  0.76713  0.87861  Biso   1.000  H
  H98      1.0000 0.40492  0.70678  0.92657  Biso   1.000  H
  N60      1.0000 0.39106  0.78730  0.02483  Biso   1.000  N
  C77      1.0000 0.60299  0.75827  0.07880  Biso   1.000  C
  C78      1.0000 0.46390  0.86948  0.36170  Biso   1.000  C
  H99      1.0000 0.32080  0.93471  0.50502  Biso   1.000  H
  H100     1.0000 0.22979  0.93890  0.43832  Biso   1.000  H
  H101     1.0000 0.28919  0.87109  0.43090  Biso   1.000  H
  N61      1.0000 0.32704  0.83349  0.15542  Biso   1.000  N
  N62      1.0000 0.32711  0.83349  0.15542  Biso   1.000  N
  H102     1.0000 0.20838  0.87270  0.16417  Biso   1.000  H
  H103     1.0000 0.25029  0.83971  0.26946  Biso   1.000  H
  H104     1.0000 0.25029  0.83971  0.26953  Biso   1.000  H
  C79      1.0000 0.44390  0.76064  0.11598  Biso   1.000  C
  C80      1.0000 0.32021  0.82538  0.04928  Biso   1.000  C
  H105     1.0000 0.59512  0.70678  0.07341  Biso   1.000  H
  H106     1.0000 0.65767  0.76713  0.12137  Biso   1.000  H
  N63      1.0000 0.53209  0.78848  0.13129  Biso   1.000  N
  N64      1.0000 0.46877  0.83906  0.25938  Biso   1.000  N
  H107     1.0000 0.42951  0.83799  0.40130  Biso   1.000  H
  H108     1.0000 0.52231  0.87190  0.39786  Biso   1.000  H
  C81      1.0000 0.40011  0.79502  0.20767  Biso   1.000  C
  H109     1.0000 0.44302  0.70812  0.11934  Biso   1.000  H
  O25      1.0000 0.26046  0.84647  0.98867  Biso   1.000  O
  C82      1.0000 0.54627  0.83043  0.21791  Biso   1.000  C
  H110     1.0000 0.38080  0.75838  0.25493  Biso   1.000  H
  O26      1.0000 0.61638  0.85537  0.25251  Biso   1.000  O
  Ne1      1.0000 0.00945  0.50000  0.01334  Biso   1.000  Ne
  He1      1.0000 0.19826  0.50000  0.13739  Biso   1.000  He
  He2      1.0000 0.80014  0.50000  0.86133  Biso   1.000  He
  Ar1      1.0000 0.00683  0.50000  0.99874  Biso   1.000  Ar
  Ne2      1.0000 0.49951  0.00000  0.99555  Biso   1.000  Ne
  He3      1.0000 0.69828  1.00000  0.13738  Biso   1.000  He
  He4      1.0000 0.30011  0.00000  0.86130  Biso   1.000  He
  Ar2      1.0000 0.49951  0.00000  0.99555  Biso   1.000  Ar
