data_image0
_cell_length_a       12.285
_cell_length_b       12.69
_cell_length_c       15.131
_cell_angle_alpha    74.7
_cell_angle_beta     71.41
_cell_angle_gamma    86.51

_symmetry_space_group_name_H-M    "P 1"
_symmetry_int_tables_number       1

loop_
  _symmetry_equiv_pos_as_xyz
  'x, y, z'

loop_
  _atom_site_label
  _atom_site_occupancy
  _atom_site_fract_x
  _atom_site_fract_y
  _atom_site_fract_z
  _atom_site_thermal_displace_type
  _atom_site_B_iso_or_equiv
  _atom_site_type_symbol
  N1       1.0000 0.66115  0.51640  0.23422  Biso   1.000  N
  O1       1.0000 0.67030  0.67678  0.11808  Biso   1.000  O
  N2       1.0000 0.75946  0.65724  0.23372  Biso   1.000  N
  C1       1.0000 0.58607  0.45865  0.20520  Biso   1.000  C
  C2       1.0000 0.69655  0.47533  0.31983  Biso   1.000  C
  C3       1.0000 0.69647  0.47525  0.31983  Biso   1.000  C
  C4       1.0000 0.69647  0.47533  0.31983  Biso   1.000  C
  C5       1.0000 0.69612  0.62212  0.18752  Biso   1.000  C
  C6       1.0000 0.69605  0.62204  0.18752  Biso   1.000  C
  C7       1.0000 0.76050  0.57736  0.32242  Biso   1.000  C
  C8       1.0000 0.79602  0.77158  0.20853  Biso   1.000  C
  N3       1.0000 0.63957  0.37699  0.15728  Biso   1.000  N
  H1       1.0000 0.52373  0.42433  0.26208  Biso   1.000  H
  H2       1.0000 0.55265  0.51161  0.16262  Biso   1.000  H
  H3       1.0000 0.55266  0.51154  0.16262  Biso   1.000  H
  N4       1.0000 0.78658  0.39407  0.31044  Biso   1.000  N
  C9       1.0000 0.59400  0.43367  0.41041  Biso   1.000  C
  N5       1.0000 0.87349  0.53657  0.32127  Biso   1.000  N
  N6       1.0000 0.87348  0.53665  0.32127  Biso   1.000  N
  C10      1.0000 0.69502  0.62170  0.41077  Biso   1.000  C
  H4       1.0000 0.77620  0.79588  0.26713  Biso   1.000  H
  H5       1.0000 0.75333  0.81483  0.16810  Biso   1.000  H
  N7       1.0000 0.91705  0.79243  0.15858  Biso   1.000  N
  N8       1.0000 0.91697  0.79243  0.15858  Biso   1.000  N
  C11      1.0000 0.65677  0.26517  0.20622  Biso   1.000  C
  C12      1.0000 0.65591  0.39039  0.06128  Biso   1.000  C
  C13      1.0000 0.76691  0.27929  0.32149  Biso   1.000  C
  C14      1.0000 0.88541  0.43052  0.31701  Biso   1.000  C
  H6       1.0000 0.62079  0.40730  0.46519  Biso   1.000  H
  H7       1.0000 0.54223  0.49229  0.42051  Biso   1.000  H
  H8       1.0000 0.55482  0.37538  0.40240  Biso   1.000  H
  C15      1.0000 0.96176  0.59769  0.33253  Biso   1.000  C
  C16      1.0000 0.96179  0.59772  0.33246  Biso   1.000  C
  H9       1.0000 0.62100  0.64622  0.40630  Biso   1.000  H
  H10      1.0000 0.68539  0.56469  0.46909  Biso   1.000  H
  H11      1.0000 0.73814  0.68180  0.41178  Biso   1.000  H
  C17      1.0000 0.00659  0.78345  0.20520  Biso   1.000  C
  C18      1.0000 0.95741  0.83630  0.06099  Biso   1.000  C
  C19      1.0000 0.95741  0.83622  0.06099  Biso   1.000  C
  C20      1.0000 0.68822  0.20507  0.12371  Biso   1.000  C
  C21      1.0000 0.68814  0.20507  0.12371  Biso   1.000  C
  N9       1.0000 0.75969  0.25275  0.23653  Biso   1.000  N
  C22      1.0000 0.54774  0.21318  0.29218  Biso   1.000  C
  N10      1.0000 0.75967  0.25265  0.23660  Biso   1.000  N
  N11      1.0000 0.69139  0.29384  0.03862  Biso   1.000  N
  O2       1.0000 0.63961  0.47410  0.00563  Biso   1.000  O
  H12      1.0000 0.69590  0.25522  0.37353  Biso   1.000  H
  H13      1.0000 0.82856  0.23840  0.34061  Biso   1.000  H
  O3       1.0000 0.96910  0.37389  0.32170  Biso   1.000  O
  H14      1.0000 0.92541  0.64020  0.37829  Biso   1.000  H
  H15      1.0000 0.01140  0.54629  0.36010  Biso   1.000  H
  N12      1.0000 0.03249  0.67095  0.24433  Biso   1.000  N
  C23      1.0000 0.97860  0.84937  0.27940  Biso   1.000  C
  C24      1.0000 0.11857  0.82475  0.11614  Biso   1.000  C
  O4       1.0000 0.89865  0.86065  0.00772  Biso   1.000  O
  O5       1.0000 0.89857  0.86065  0.00772  Biso   1.000  O
  N13      1.0000 0.07350  0.85355  0.03414  Biso   1.000  N
  C25      1.0000 0.60210  0.11463  0.14277  Biso   1.000  C
  N14      1.0000 0.80075  0.16248  0.12278  Biso   1.000  N
  H16      1.0000 0.48410  0.21322  0.26829  Biso   1.000  H
  H17      1.0000 0.56314  0.13953  0.32156  Biso   1.000  H
  H18      1.0000 0.56311  0.13951  0.32163  Biso   1.000  H
  H19      1.0000 0.52936  0.25519  0.33910  Biso   1.000  H
  C26      1.0000 0.83789  0.18619  0.19149  Biso   1.000  C
  C27      1.0000 0.69739  0.27835  0.94558  Biso   1.000  C
  C28      1.0000 0.13579  0.64039  0.19200  Biso   1.000  C
  H20      1.0000 0.96259  0.92310  0.25032  Biso   1.000  H
  H21      1.0000 0.91260  0.81729  0.33238  Biso   1.000  H
  H22      1.0000 0.04291  0.84968  0.30236  Biso   1.000  H
  H23      1.0000 0.04288  0.84966  0.30243  Biso   1.000  H
  N15      1.0000 0.18714  0.72709  0.11801  Biso   1.000  N
  C29      1.0000 0.18346  0.91933  0.12314  Biso   1.000  C
  C30      1.0000 0.13700  0.90859  0.93533  Biso   1.000  C
  H24      1.0000 0.52868  0.14551  0.14299  Biso   1.000  H
  H25      1.0000 0.59496  0.06454  0.20441  Biso   1.000  H
  H26      1.0000 0.62796  0.07640  0.09318  Biso   1.000  H
  C31      1.0000 0.86296  0.09137  0.06467  Biso   1.000  C
  O6       1.0000 0.92399  0.15128  0.21206  Biso   1.000  O
  N16      1.0000 0.81281  0.27295  0.88199  Biso   1.000  N
  H27      1.0000 0.65877  0.33795  0.91375  Biso   1.000  H
  H28      1.0000 0.65586  0.21114  0.95619  Biso   1.000  H
  O7       1.0000 0.17641  0.54946  0.20946  Biso   1.000  O
  C32      1.0000 0.30257  0.72162  0.05442  Biso   1.000  C
  H29      1.0000 0.13669  0.98274  0.12119  Biso   1.000  H
  H30      1.0000 0.20132  0.89964  0.18261  Biso   1.000  H
  H31      1.0000 0.25339  0.93517  0.06980  Biso   1.000  H
  H32      1.0000 0.08360  0.94960  0.90472  Biso   1.000  H
  N17      1.0000 0.19920  0.83757  0.87722  Biso   1.000  N
  H33      1.0000 0.19105  0.96063  0.93612  Biso   1.000  H
  H34      1.0000 0.80891  0.03942  0.06388  Biso   1.000  H
  N18      1.0000 0.92646  0.14649  0.96586  Biso   1.000  N
  N19      1.0000 0.92646  0.14641  0.96586  Biso   1.000  N
  H35      1.0000 0.91636  0.05044  0.09528  Biso   1.000  H
  H36      1.0000 0.91636  0.05036  0.09528  Biso   1.000  H
  C33      1.0000 0.88136  0.17528  0.88394  Biso   1.000  C
  C34      1.0000 0.86417  0.35965  0.80800  Biso   1.000  C
  N20      1.0000 0.30857  0.70612  0.96138  Biso   1.000  N
  H37      1.0000 0.34116  0.66207  0.08633  Biso   1.000  H
  H38      1.0000 0.34410  0.78883  0.04381  Biso   1.000  H
  C35      1.0000 0.16207  0.81385  0.80851  Biso   1.000  C
  C36      1.0000 0.31182  0.79497  0.87629  Biso   1.000  C
  C37      1.0000 0.31174  0.79489  0.87629  Biso   1.000  C
  C38      1.0000 0.04255  0.16374  0.93901  Biso   1.000  C
  C39      1.0000 0.99337  0.21659  0.79480  Biso   1.000  C
  C40      1.0000 0.81647  0.08069  0.87693  Biso   1.000  C
  C41      1.0000 0.99337  0.21651  0.79480  Biso   1.000  C
  C42      1.0000 0.81647  0.08061  0.87693  Biso   1.000  C
  N21      1.0000 0.96747  0.32909  0.75567  Biso   1.000  N
  N22      1.0000 0.96744  0.32899  0.75575  Biso   1.000  N
  O8       1.0000 0.82355  0.45058  0.79054  Biso   1.000  O
  C43      1.0000 0.34405  0.60965  0.93872  Biso   1.000  C
  N23      1.0000 0.24027  0.74729  0.76347  Biso   1.000  N
  O9       1.0000 0.07597  0.84869  0.78794  Biso   1.000  O
  C44      1.0000 0.34319  0.73487  0.79378  Biso   1.000  C
  C45      1.0000 0.34319  0.73479  0.79378  Biso   1.000  C
  C46      1.0000 0.39786  0.88542  0.85723  Biso   1.000  C
  N24      1.0000 0.08300  0.20753  0.84142  Biso   1.000  N
  O10      1.0000 0.10139  0.13939  0.99228  Biso   1.000  O
  C47      1.0000 0.02136  0.15067  0.72060  Biso   1.000  C
  H39      1.0000 0.86326  0.01730  0.87881  Biso   1.000  H
  H40      1.0000 0.79872  0.10040  0.81739  Biso   1.000  H
  H41      1.0000 0.74657  0.06487  0.93020  Biso   1.000  H
  H42      1.0000 0.86327  0.01722  0.87881  Biso   1.000  H
  H43      1.0000 0.79873  0.10032  0.81739  Biso   1.000  H
  H44      1.0000 0.79864  0.10040  0.81739  Biso   1.000  H
  H45      1.0000 0.79865  0.10032  0.81739  Biso   1.000  H
  C48      1.0000 0.03817  0.40233  0.66754  Biso   1.000  C
  N25      1.0000 0.36039  0.62305  0.84272  Biso   1.000  N
  O11      1.0000 0.36035  0.52594  0.99437  Biso   1.000  O
  C49      1.0000 0.23305  0.72075  0.67851  Biso   1.000  C
  C50      1.0000 0.45223  0.78679  0.70782  Biso   1.000  C
  H46      1.0000 0.47127  0.85453  0.85701  Biso   1.000  H
  H47      1.0000 0.40499  0.93550  0.79559  Biso   1.000  H
  H48      1.0000 0.37200  0.92365  0.90682  Biso   1.000  H
  C51      1.0000 0.20391  0.22844  0.79155  Biso   1.000  C
  H49      1.0000 0.95705  0.15036  0.69764  Biso   1.000  H
  H50      1.0000 0.03736  0.07695  0.74968  Biso   1.000  H
  H51      1.0000 0.08735  0.18275  0.66762  Biso   1.000  H
  H52      1.0000 0.98856  0.45376  0.63990  Biso   1.000  H
  N26      1.0000 0.12647  0.46340  0.67873  Biso   1.000  N
  H53      1.0000 0.07454  0.35984  0.62171  Biso   1.000  H
  C52      1.0000 0.41389  0.54131  0.79480  Biso   1.000  C
  N27      1.0000 0.21338  0.60597  0.68956  Biso   1.000  N
  N28      1.0000 0.21338  0.60589  0.68956  Biso   1.000  N
  H54      1.0000 0.17140  0.76164  0.65939  Biso   1.000  H
  H55      1.0000 0.30406  0.74482  0.62647  Biso   1.000  H
  H56      1.0000 0.51586  0.78682  0.73171  Biso   1.000  H
  H57      1.0000 0.47060  0.74485  0.66090  Biso   1.000  H
  H58      1.0000 0.47060  0.74477  0.66090  Biso   1.000  H
  H59      1.0000 0.43682  0.86051  0.67844  Biso   1.000  H
  N29      1.0000 0.24051  0.34273  0.76628  Biso   1.000  N
  H60      1.0000 0.22373  0.20414  0.73294  Biso   1.000  H
  H61      1.0000 0.24663  0.18513  0.83190  Biso   1.000  H
  C53      1.0000 0.23946  0.42268  0.67758  Biso   1.000  C
  C54      1.0000 0.23944  0.42258  0.67765  Biso   1.000  C
  C55      1.0000 0.11455  0.56952  0.68299  Biso   1.000  C
  N30      1.0000 0.33878  0.48362  0.76585  Biso   1.000  N
  H62      1.0000 0.44730  0.48843  0.83738  Biso   1.000  H
  H63      1.0000 0.47631  0.57571  0.73792  Biso   1.000  H
  H64      1.0000 0.47623  0.57571  0.73792  Biso   1.000  H
  C56      1.0000 0.30349  0.52471  0.68017  Biso   1.000  C
  C57      1.0000 0.30346  0.52469  0.68025  Biso   1.000  C
  C58      1.0000 0.30392  0.37792  0.81248  Biso   1.000  C
  C59      1.0000 0.30383  0.37792  0.81248  Biso   1.000  C
  C60      1.0000 0.30494  0.37834  0.58923  Biso   1.000  C
  O12      1.0000 0.03086  0.62608  0.67830  Biso   1.000  O
  C61      1.0000 0.40596  0.56629  0.58959  Biso   1.000  C
  O13      1.0000 0.32966  0.32326  0.88192  Biso   1.000  O
  H65      1.0000 0.37896  0.35382  0.59370  Biso   1.000  H
  H66      1.0000 0.26190  0.31824  0.58822  Biso   1.000  H
  H67      1.0000 0.31457  0.43528  0.53091  Biso   1.000  H
  H68      1.0000 0.26182  0.31824  0.58822  Biso   1.000  H
  H69      1.0000 0.37917  0.59274  0.53481  Biso   1.000  H
  H70      1.0000 0.45781  0.50775  0.57949  Biso   1.000  H
  H71      1.0000 0.45773  0.50775  0.57949  Biso   1.000  H
  H72      1.0000 0.44514  0.62466  0.59760  Biso   1.000  H
  H73      1.0000 0.44514  0.62458  0.59760  Biso   1.000  H
  Ne1      1.0000 0.99589  0.49829  0.99899  Biso   1.000  Ne
  He1      1.0000 0.15230  0.32798  0.10412  Biso   1.000  He
  He2      1.0000 0.84675  0.67293  0.89529  Biso   1.000  He
  Ar1      1.0000 0.00052  0.49976  0.99814  Biso   1.000  Ar
