data_image0
_cell_length_a       12.036
_cell_length_b       21.108
_cell_length_c       14.831
_cell_angle_alpha    90
_cell_angle_beta     98.54
_cell_angle_gamma    90

_symmetry_space_group_name_H-M    "P 1"
_symmetry_int_tables_number       1

loop_
  _symmetry_equiv_pos_as_xyz
  'x, y, z'

loop_
  _atom_site_label
  _atom_site_occupancy
  _atom_site_fract_x
  _atom_site_fract_y
  _atom_site_fract_z
  _atom_site_thermal_displace_type
  _atom_site_B_iso_or_equiv
  _atom_site_type_symbol
  C1       1.0000 0.58296  0.55154  0.59550  Biso   1.000  C
  C2       1.0000 0.47757  0.52824  0.62298  Biso   1.000  C
  C3       1.0000 0.69031  0.54013  0.65728  Biso   1.000  C
  O1       1.0000 0.58179  0.58002  0.52371  Biso   1.000  O
  C4       1.0000 0.47407  0.49938  0.70235  Biso   1.000  C
  H1       1.0000 0.40943  0.53411  0.58248  Biso   1.000  H
  C5       1.0000 0.68607  0.51137  0.73671  Biso   1.000  C
  C6       1.0000 0.80002  0.56201  0.62844  Biso   1.000  C
  C7       1.0000 0.36721  0.47650  0.73364  Biso   1.000  C
  C8       1.0000 0.58018  0.48977  0.76507  Biso   1.000  C
  H2       1.0000 0.75431  0.50460  0.77680  Biso   1.000  H
  C9       1.0000 0.87858  0.50706  0.62503  Biso   1.000  C
  H3       1.0000 0.83569  0.59409  0.67214  Biso   1.000  H
  H4       1.0000 0.78455  0.58210  0.56748  Biso   1.000  H
  C10      1.0000 0.36376  0.40539  0.74339  Biso   1.000  C
  H5       1.0000 0.30208  0.49029  0.68919  Biso   1.000  H
  H6       1.0000 0.36031  0.49630  0.79310  Biso   1.000  H
  O2       1.0000 0.58051  0.46414  0.83912  Biso   1.000  O
  C11      1.0000 0.95663  0.49024  0.69423  Biso   1.000  C
  C12      1.0000 0.86513  0.46793  0.54062  Biso   1.000  C
  C13      1.0000 0.36830  0.36545  0.67419  Biso   1.000  C
  C14      1.0000 0.34995  0.37929  0.83455  Biso   1.000  C
  H7       1.0000 0.96841  0.51649  0.74680  Biso   1.000  H
  C15      1.0000 0.02533  0.43263  0.69239  Biso   1.000  C
  O3       1.0000 0.79794  0.48351  0.47359  Biso   1.000  O
  C16      1.0000 0.93236  0.41041  0.53891  Biso   1.000  C
  C17      1.0000 0.35657  0.29648  0.68366  Biso   1.000  C
  H8       1.0000 0.37957  0.38222  0.61685  Biso   1.000  H
  C18      1.0000 0.35007  0.30988  0.84567  Biso   1.000  C
  O4       1.0000 0.33896  0.41378  0.89892  Biso   1.000  O
  O5       1.0000 0.09796  0.41870  0.75648  Biso   1.000  O
  C19      1.0000 0.00502  0.39137  0.61044  Biso   1.000  C
  H9       1.0000 0.92387  0.38559  0.48478  Biso   1.000  H
  O6       1.0000 0.34584  0.26199  0.61637  Biso   1.000  O
  C20      1.0000 0.35299  0.27018  0.77626  Biso   1.000  C
  H10      1.0000 0.34808  0.29278  0.90471  Biso   1.000  H
  C21      1.0000 0.06827  0.32978  0.61282  Biso   1.000  C
  C22      1.0000 0.35593  0.19898  0.78641  Biso   1.000  C
  C23      1.0000 0.00742  0.27710  0.65489  Biso   1.000  C
  H11      1.0000 0.07786  0.31770  0.54989  Biso   1.000  H
  H12      1.0000 0.14392  0.33551  0.64848  Biso   1.000  H
  C24      1.0000 0.47373  0.17557  0.78089  Biso   1.000  C
  H13      1.0000 0.33390  0.18690  0.84580  Biso   1.000  H
  H14      1.0000 0.30208  0.17941  0.73732  Biso   1.000  H
  C25      1.0000 0.03589  0.25559  0.73964  Biso   1.000  C
  C26      1.0000 0.91082  0.24664  0.59646  Biso   1.000  C
  C27      1.0000 0.50039  0.14923  0.70139  Biso   1.000  C
  C28      1.0000 0.55786  0.18216  0.85562  Biso   1.000  C
  C29      1.0000 0.97686  0.20315  0.77844  Biso   1.000  C
  H15      1.0000 0.09742  0.27501  0.77714  Biso   1.000  H
  C30      1.0000 0.84918  0.19647  0.63648  Biso   1.000  C
  O7       1.0000 0.88521  0.26170  0.51689  Biso   1.000  O
  C31      1.0000 0.60932  0.13057  0.69457  Biso   1.000  C
  H16      1.0000 0.44306  0.14378  0.65053  Biso   1.000  H
  O8       1.0000 0.52574  0.20912  0.93164  Biso   1.000  O
  C32      1.0000 0.66738  0.16330  0.84887  Biso   1.000  C
  C33      1.0000 0.87767  0.17410  0.72089  Biso   1.000  C
  O9       1.0000 0.01032  0.18372  0.85507  Biso   1.000  O
  H17      1.0000 0.78496  0.17879  0.60014  Biso   1.000  H
  O10      1.0000 0.64084  0.10366  0.61760  Biso   1.000  O
  C34      1.0000 0.69523  0.13848  0.76862  Biso   1.000  C
  C35      1.0000 0.59726  0.20106  0.01598  Biso   1.000  C
  H18      1.0000 0.72407  0.16761  0.90035  Biso   1.000  H
  C36      1.0000 0.81579  0.12114  0.76139  Biso   1.000  C
  C37      1.0000 0.55396  0.09319  0.54232  Biso   1.000  C
  H19      1.0000 0.66863  0.22300  0.01373  Biso   1.000  H
  H20      1.0000 0.56109  0.21892  0.06535  Biso   1.000  H
  H21      1.0000 0.61153  0.15582  0.02723  Biso   1.000  H
  H22      1.0000 0.81648  0.08291  0.72294  Biso   1.000  H
  H23      1.0000 0.85579  0.11081  0.82289  Biso   1.000  H
  H24      1.0000 0.58590  0.07282  0.49262  Biso   1.000  H
  H25      1.0000 0.49623  0.06571  0.56148  Biso   1.000  H
  H26      1.0000 0.52051  0.13379  0.52119  Biso   1.000  H
  C38      1.0000 0.41699  0.44846  0.40453  Biso   1.000  C
  C39      1.0000 0.30973  0.45987  0.34275  Biso   1.000  C
  O11      1.0000 0.41817  0.41998  0.47632  Biso   1.000  O
  C40      1.0000 0.52237  0.47176  0.37698  Biso   1.000  C
  C41      1.0000 0.20002  0.43799  0.37159  Biso   1.000  C
  C42      1.0000 0.31387  0.48863  0.26325  Biso   1.000  C
  C43      1.0000 0.52597  0.50062  0.29768  Biso   1.000  C
  H27      1.0000 0.59060  0.46589  0.41748  Biso   1.000  H
  C44      1.0000 0.12138  0.49294  0.37500  Biso   1.000  C
  H28      1.0000 0.16427  0.40591  0.32789  Biso   1.000  H
  H29      1.0000 0.21540  0.41790  0.43248  Biso   1.000  H
  H30      1.0000 0.24573  0.49540  0.22323  Biso   1.000  H
  C45      1.0000 0.41978  0.51023  0.23496  Biso   1.000  C
  C46      1.0000 0.63283  0.52350  0.26639  Biso   1.000  C
  C47      1.0000 0.04341  0.50976  0.30580  Biso   1.000  C
  C48      1.0000 0.13490  0.53207  0.45934  Biso   1.000  C
  O12      1.0000 0.41944  0.53586  0.16091  Biso   1.000  O
  H31      1.0000 0.69786  0.50971  0.31077  Biso   1.000  H
  H32      1.0000 0.63973  0.50370  0.20693  Biso   1.000  H
  C49      1.0000 0.63628  0.59461  0.25664  Biso   1.000  C
  H33      1.0000 0.03163  0.48351  0.25323  Biso   1.000  H
  C50      1.0000 0.97470  0.56737  0.30764  Biso   1.000  C
  O13      1.0000 0.20201  0.51649  0.52644  Biso   1.000  O
  C51      1.0000 0.06759  0.58963  0.46112  Biso   1.000  C
  C52      1.0000 0.65000  0.62071  0.16548  Biso   1.000  C
  C53      1.0000 0.63166  0.63455  0.32584  Biso   1.000  C
  O14      1.0000 0.90199  0.58130  0.24355  Biso   1.000  O
  C54      1.0000 0.99501  0.60863  0.38953  Biso   1.000  C
  H34      1.0000 0.07608  0.61441  0.51519  Biso   1.000  H
  O15      1.0000 0.66106  0.58622  0.10105  Biso   1.000  O
  C55      1.0000 0.64988  0.69012  0.15436  Biso   1.000  C
  C56      1.0000 0.64345  0.70352  0.31630  Biso   1.000  C
  H35      1.0000 0.62038  0.61782  0.38318  Biso   1.000  H
  C57      1.0000 0.93169  0.67022  0.38721  Biso   1.000  C
  H36      1.0000 0.65187  0.70722  0.09532  Biso   1.000  H
  C58      1.0000 0.64696  0.72987  0.22377  Biso   1.000  C
  O16      1.0000 0.65419  0.73801  0.38359  Biso   1.000  O
  C59      1.0000 0.99253  0.72290  0.34514  Biso   1.000  C
  H37      1.0000 0.92210  0.68230  0.45014  Biso   1.000  H
  H38      1.0000 0.85611  0.66449  0.35148  Biso   1.000  H
  C60      1.0000 0.64411  0.80102  0.21362  Biso   1.000  C
  C61      1.0000 0.08922  0.75336  0.40357  Biso   1.000  C
  C62      1.0000 0.96414  0.74441  0.26032  Biso   1.000  C
  C63      1.0000 0.52622  0.82443  0.21914  Biso   1.000  C
  H39      1.0000 0.66606  0.81310  0.15423  Biso   1.000  H
  H40      1.0000 0.69787  0.82059  0.26271  Biso   1.000  H
  O17      1.0000 0.11474  0.73830  0.48314  Biso   1.000  O
  C64      1.0000 0.15076  0.80353  0.36348  Biso   1.000  C
  C65      1.0000 0.02310  0.79685  0.22159  Biso   1.000  C
  H41      1.0000 0.90262  0.72499  0.22289  Biso   1.000  H
  C66      1.0000 0.49956  0.85077  0.29864  Biso   1.000  C
  C67      1.0000 0.44208  0.81784  0.14434  Biso   1.000  C
  C68      1.0000 0.12227  0.82590  0.27907  Biso   1.000  C
  H42      1.0000 0.21500  0.82121  0.39989  Biso   1.000  H
  O18      1.0000 0.98964  0.81633  0.14496  Biso   1.000  O
  C69      1.0000 0.39072  0.86943  0.30546  Biso   1.000  C
  H43      1.0000 0.55689  0.85622  0.34950  Biso   1.000  H
  C70      1.0000 0.33258  0.83670  0.15116  Biso   1.000  C
  O19      1.0000 0.47421  0.79088  0.06839  Biso   1.000  O
  C71      1.0000 0.18416  0.87886  0.23864  Biso   1.000  C
  C72      1.0000 0.30479  0.86152  0.23134  Biso   1.000  C
  O20      1.0000 0.35911  0.89634  0.38243  Biso   1.000  O
  H44      1.0000 0.27588  0.83239  0.09968  Biso   1.000  H
  C73      1.0000 0.40270  0.79894  0.98405  Biso   1.000  C
  H45      1.0000 0.18347  0.91709  0.27709  Biso   1.000  H
  H46      1.0000 0.14424  0.88919  0.17714  Biso   1.000  H
  C74      1.0000 0.44600  0.90681  0.45771  Biso   1.000  C
  H47      1.0000 0.33141  0.77700  0.98630  Biso   1.000  H
  H48      1.0000 0.43886  0.78113  0.93468  Biso   1.000  H
  H49      1.0000 0.38851  0.84418  0.97280  Biso   1.000  H
  H50      1.0000 0.41413  0.92718  0.50741  Biso   1.000  H
  H51      1.0000 0.50380  0.93429  0.43848  Biso   1.000  H
  H52      1.0000 0.47952  0.86621  0.47878  Biso   1.000  H
  C75      1.0000 0.59733  0.29894  0.51600  Biso   1.000  C
  O21      1.0000 0.52572  0.29088  0.43159  Biso   1.000  O
  H53      1.0000 0.66861  0.27700  0.51369  Biso   1.000  H
  H54      1.0000 0.56107  0.28108  0.56530  Biso   1.000  H
  H55      1.0000 0.61151  0.34418  0.52719  Biso   1.000  H
  C76      1.0000 0.55793  0.31784  0.35564  Biso   1.000  C
  C77      1.0000 0.47380  0.32443  0.28091  Biso   1.000  C
  C78      1.0000 0.66743  0.33670  0.34882  Biso   1.000  C
  C79      1.0000 0.35591  0.30102  0.28637  Biso   1.000  C
  C80      1.0000 0.50037  0.35077  0.20134  Biso   1.000  C
  C81      1.0000 0.69522  0.36152  0.26864  Biso   1.000  C
  H56      1.0000 0.72413  0.33239  0.40030  Biso   1.000  H
  C82      1.0000 0.35298  0.22982  0.27627  Biso   1.000  C
  H57      1.0000 0.33388  0.31310  0.34582  Biso   1.000  H
  H58      1.0000 0.30206  0.32059  0.23727  Biso   1.000  H
  C83      1.0000 0.60929  0.36943  0.19452  Biso   1.000  C
  H59      1.0000 0.44312  0.35622  0.15048  Biso   1.000  H
  C84      1.0000 0.81578  0.37886  0.26141  Biso   1.000  C
  C85      1.0000 0.35014  0.19012  0.34568  Biso   1.000  C
  C86      1.0000 0.35656  0.20352  0.18368  Biso   1.000  C
  O22      1.0000 0.64082  0.39634  0.11755  Biso   1.000  O
  H60      1.0000 0.81646  0.41709  0.22289  Biso   1.000  H
  H61      1.0000 0.85578  0.38919  0.32291  Biso   1.000  H
  C87      1.0000 0.87766  0.32590  0.22091  Biso   1.000  C
  C88      1.0000 0.34993  0.12071  0.33450  Biso   1.000  C
  H62      1.0000 0.34807  0.20722  0.40473  Biso   1.000  H
  O23      1.0000 0.34582  0.23801  0.11639  Biso   1.000  O
  C89      1.0000 0.36828  0.13455  0.17421  Biso   1.000  C
  C90      1.0000 0.55403  0.40681  0.04234  Biso   1.000  C
  C91      1.0000 0.97693  0.29685  0.27846  Biso   1.000  C
  C92      1.0000 0.84917  0.30353  0.13650  Biso   1.000  C
  O24      1.0000 0.33895  0.08622  0.39893  Biso   1.000  O
  C93      1.0000 0.36374  0.09461  0.24334  Biso   1.000  C
  H63      1.0000 0.37963  0.11782  0.11680  Biso   1.000  H
  H64      1.0000 0.49622  0.43429  0.06150  Biso   1.000  H
  H65      1.0000 0.52050  0.36621  0.02120  Biso   1.000  H
  H66      1.0000 0.58588  0.42718  0.99257  Biso   1.000  H
  O25      1.0000 0.01039  0.31628  0.35509  Biso   1.000  O
  C94      1.0000 0.03588  0.24441  0.23966  Biso   1.000  C
  C95      1.0000 0.91081  0.25336  0.09648  Biso   1.000  C
  H67      1.0000 0.78502  0.32121  0.10009  Biso   1.000  H
  C96      1.0000 0.36719  0.02350  0.23359  Biso   1.000  C
  H68      1.0000 0.09740  0.22499  0.27709  Biso   1.000  H
  C97      1.0000 0.00741  0.22290  0.15491  Biso   1.000  C
  O26      1.0000 0.88519  0.23830  0.01684  Biso   1.000  O
  C98      1.0000 0.47404  0.00062  0.20230  Biso   1.000  C
  H69      1.0000 0.30207  0.00971  0.18921  Biso   1.000  H
  H70      1.0000 0.36030  0.00370  0.29312  Biso   1.000  H
  C99      1.0000 0.06833  0.17022  0.11277  Biso   1.000  C
  C100     1.0000 0.58015  0.01023  0.26502  Biso   1.000  C
  C101     1.0000 0.47756  0.97176  0.12300  Biso   1.000  C
  H71      1.0000 0.07793  0.18230  0.04991  Biso   1.000  H
  H72      1.0000 0.14391  0.16449  0.14850  Biso   1.000  H
  C102     1.0000 0.00501  0.10863  0.11046  Biso   1.000  C
  O27      1.0000 0.58050  0.03586  0.33914  Biso   1.000  O
  C103     1.0000 0.68606  0.98863  0.23673  Biso   1.000  C
  H73      1.0000 0.40941  0.96589  0.08250  Biso   1.000  H
  C104     1.0000 0.58303  0.94846  0.09552  Biso   1.000  C
  C105     1.0000 0.02531  0.06737  0.19234  Biso   1.000  C
  C106     1.0000 0.93243  0.08959  0.03893  Biso   1.000  C
  C107     1.0000 0.69030  0.95987  0.15730  Biso   1.000  C
  H74      1.0000 0.75429  0.99540  0.27682  Biso   1.000  H
  O28      1.0000 0.58178  0.91998  0.02373  Biso   1.000  O
  C108     1.0000 0.95660  0.00976  0.19418  Biso   1.000  C
  O29      1.0000 0.09794  0.08130  0.25643  Biso   1.000  O
  C109     1.0000 0.86511  0.03207  0.04064  Biso   1.000  C
  H75      1.0000 0.92385  0.11441  0.98480  Biso   1.000  H
  C110     1.0000 0.80000  0.93799  0.12839  Biso   1.000  C
  C111     1.0000 0.87856  0.99294  0.12505  Biso   1.000  C
  H76      1.0000 0.96839  0.98351  0.24682  Biso   1.000  H
  O30      1.0000 0.79792  0.01649  0.97355  Biso   1.000  O
  H77      1.0000 0.83566  0.90591  0.17209  Biso   1.000  H
  H78      1.0000 0.78462  0.91790  0.06750  Biso   1.000  H
  C112     1.0000 0.40271  0.70106  0.48403  Biso   1.000  C
  O31      1.0000 0.47424  0.70912  0.56844  Biso   1.000  O
  H79      1.0000 0.33142  0.72300  0.48628  Biso   1.000  H
  H80      1.0000 0.43889  0.71892  0.43473  Biso   1.000  H
  H81      1.0000 0.38852  0.65582  0.47278  Biso   1.000  H
  C113     1.0000 0.44211  0.68216  0.64439  Biso   1.000  C
  C114     1.0000 0.52624  0.67557  0.71912  Biso   1.000  C
  C115     1.0000 0.33260  0.66330  0.65121  Biso   1.000  C
  C116     1.0000 0.49959  0.64923  0.79869  Biso   1.000  C
  C117     1.0000 0.64413  0.69898  0.71366  Biso   1.000  C
  H82      1.0000 0.27591  0.66761  0.59973  Biso   1.000  H
  C118     1.0000 0.30482  0.63848  0.73139  Biso   1.000  C
  C119     1.0000 0.39067  0.63057  0.80551  Biso   1.000  C
  H83      1.0000 0.55690  0.64378  0.84948  Biso   1.000  H
  C120     1.0000 0.64698  0.77018  0.72376  Biso   1.000  C
  H84      1.0000 0.66607  0.68690  0.65421  Biso   1.000  H
  H85      1.0000 0.69788  0.67941  0.76269  Biso   1.000  H
  C121     1.0000 0.18418  0.62114  0.73862  Biso   1.000  C
  O32      1.0000 0.35914  0.60366  0.88248  Biso   1.000  O
  C122     1.0000 0.64989  0.80988  0.65435  Biso   1.000  C
  C123     1.0000 0.64340  0.79648  0.81635  Biso   1.000  C
  H86      1.0000 0.18350  0.58291  0.77714  Biso   1.000  H
  H87      1.0000 0.14417  0.61081  0.67712  Biso   1.000  H
  C124     1.0000 0.12229  0.67410  0.77912  Biso   1.000  C
  C125     1.0000 0.44601  0.59319  0.95769  Biso   1.000  C
  C126     1.0000 0.65002  0.87929  0.66546  Biso   1.000  C
  H88      1.0000 0.65189  0.79283  0.59530  Biso   1.000  H
  O33      1.0000 0.65413  0.76199  0.88364  Biso   1.000  O
  C127     1.0000 0.63167  0.86545  0.82582  Biso   1.000  C
  C128     1.0000 0.02311  0.70315  0.72157  Biso   1.000  C
  C129     1.0000 0.15078  0.69647  0.86353  Biso   1.000  C
  H89      1.0000 0.50382  0.56571  0.93853  Biso   1.000  H
  H90      1.0000 0.47946  0.63379  0.97883  Biso   1.000  H
  H91      1.0000 0.41406  0.57282  0.00739  Biso   1.000  H
  O34      1.0000 0.66109  0.91378  0.60110  Biso   1.000  O
  C130     1.0000 0.63630  0.90539  0.75669  Biso   1.000  C
  H92      1.0000 0.62041  0.88222  0.88323  Biso   1.000  H
  O35      1.0000 0.98965  0.68372  0.64494  Biso   1.000  O
  C131     1.0000 0.96408  0.75559  0.76037  Biso   1.000  C
  C132     1.0000 0.08923  0.74664  0.90355  Biso   1.000  C
  H93      1.0000 0.21502  0.67879  0.89994  Biso   1.000  H
  C133     1.0000 0.63277  0.97650  0.76644  Biso   1.000  C
  H94      1.0000 0.90264  0.77501  0.72294  Biso   1.000  H
  C134     1.0000 0.99255  0.77710  0.84512  Biso   1.000  C
  O36      1.0000 0.11477  0.76170  0.98319  Biso   1.000  O
  C135     1.0000 0.52600  0.99938  0.79773  Biso   1.000  C
  H95      1.0000 0.69789  0.99029  0.81082  Biso   1.000  H
  H96      1.0000 0.63966  0.99630  0.70691  Biso   1.000  H
  C136     1.0000 0.93170  0.82983  0.88719  Biso   1.000  C
  C137     1.0000 0.41981  0.98977  0.73501  Biso   1.000  C
  C138     1.0000 0.52240  0.02824  0.87703  Biso   1.000  C
  H97      1.0000 0.92211  0.81770  0.95012  Biso   1.000  H
  H98      1.0000 0.85613  0.83551  0.85153  Biso   1.000  H
  C139     1.0000 0.99495  0.89137  0.88957  Biso   1.000  C
  O37      1.0000 0.41945  0.96414  0.66089  Biso   1.000  O
  C140     1.0000 0.31390  0.01142  0.76330  Biso   1.000  C
  H99      1.0000 0.59063  0.03411  0.91753  Biso   1.000  H
  C141     1.0000 0.41701  0.05154  0.90451  Biso   1.000  C
  C142     1.0000 0.06761  0.91041  0.96110  Biso   1.000  C
  C143     1.0000 0.97473  0.93263  0.80769  Biso   1.000  C
  C144     1.0000 0.30966  0.04013  0.84273  Biso   1.000  C
  H100     1.0000 0.24566  0.00460  0.72321  Biso   1.000  H
  O38      1.0000 0.41818  0.08002  0.97630  Biso   1.000  O
  C145     1.0000 0.13493  0.96793  0.95939  Biso   1.000  C
  H101     1.0000 0.07610  0.88559  0.01523  Biso   1.000  H
  C146     1.0000 0.04342  0.99029  0.80578  Biso   1.000  C
  O39      1.0000 0.90202  0.91870  0.74360  Biso   1.000  O
  C147     1.0000 0.20004  0.06201  0.87164  Biso   1.000  C
  O40      1.0000 0.20204  0.98351  0.02648  Biso   1.000  O
  C148     1.0000 0.12139  0.00706  0.87498  Biso   1.000  C
  H102     1.0000 0.03156  0.01649  0.75321  Biso   1.000  H
  H103     1.0000 0.16429  0.09409  0.82794  Biso   1.000  H
  H104     1.0000 0.21542  0.08210  0.93253  Biso   1.000  H
