data_image0
_cell_length_a       14.929
_cell_length_b       15.988
_cell_length_c       16.204
_cell_angle_alpha    69.45
_cell_angle_beta     77.31
_cell_angle_gamma    65.32

_symmetry_space_group_name_H-M    "P 1"
_symmetry_int_tables_number       1

loop_
  _symmetry_equiv_pos_as_xyz
  'x, y, z'

loop_
  _atom_site_label
  _atom_site_occupancy
  _atom_site_fract_x
  _atom_site_fract_y
  _atom_site_fract_z
  _atom_site_thermal_displace_type
  _atom_site_B_iso_or_equiv
  _atom_site_type_symbol
  C1       1.0000 0.45791  0.66019  0.47490  Biso   1.000  C
  C2       1.0000 0.37408  0.65217  0.44150  Biso   1.000  C
  C3       1.0000 0.42119  0.72766  0.53219  Biso   1.000  C
  H1       1.0000 0.49932  0.59540  0.50957  Biso   1.000  H
  H2       1.0000 0.50027  0.68339  0.42344  Biso   1.000  H
  H3       1.0000 0.40233  0.60731  0.40577  Biso   1.000  H
  H4       1.0000 0.33409  0.71566  0.40531  Biso   1.000  H
  H5       1.0000 0.33221  0.62849  0.49210  Biso   1.000  H
  C4       1.0000 0.40209  0.69343  0.62394  Biso   1.000  C
  C5       1.0000 0.40504  0.82607  0.49290  Biso   1.000  C
  C6       1.0000 0.37386  0.75468  0.67720  Biso   1.000  C
  C7       1.0000 0.41158  0.58930  0.66648  Biso   1.000  C
  C8       1.0000 0.37523  0.88818  0.54582  Biso   1.000  C
  C9       1.0000 0.41943  0.86429  0.39314  Biso   1.000  C
  C10      1.0000 0.35930  0.85227  0.63810  Biso   1.000  C
  C11      1.0000 0.35709  0.71600  0.77708  Biso   1.000  C
  H6       1.0000 0.35969  0.58756  0.71629  Biso   1.000  H
  H7       1.0000 0.39660  0.56793  0.62249  Biso   1.000  H
  N1       1.0000 0.50614  0.51849  0.69995  Biso   1.000  N
  C12      1.0000 0.35594  0.99415  0.50269  Biso   1.000  C
  H8       1.0000 0.39747  0.82911  0.36721  Biso   1.000  H
  H9       1.0000 0.37447  0.93265  0.37541  Biso   1.000  H
  N2       1.0000 0.51907  0.85868  0.35239  Biso   1.000  N
  C13      1.0000 0.32545  0.91800  0.69671  Biso   1.000  C
  H10      1.0000 0.37393  0.75242  0.80560  Biso   1.000  H
  H11      1.0000 0.40187  0.64770  0.79660  Biso   1.000  H
  C14      1.0000 0.24948  0.72364  0.80758  Biso   1.000  C
  C15      1.0000 0.57926  0.54273  0.69082  Biso   1.000  C
  H12      1.0000 0.40012  0.00230  0.44765  Biso   1.000  H
  H13      1.0000 0.37120  0.01985  0.54304  Biso   1.000  H
  C16      1.0000 0.24829  0.05187  0.48072  Biso   1.000  C
  C17      1.0000 0.59041  0.82784  0.39956  Biso   1.000  C
  H14      1.0000 0.29034  0.98443  0.66039  Biso   1.000  H
  H15      1.0000 0.27646  0.89926  0.74348  Biso   1.000  H
  N3       1.0000 0.40090  0.92034  0.73997  Biso   1.000  N
  H16      1.0000 0.24268  0.69613  0.87195  Biso   1.000  H
  H17      1.0000 0.23213  0.68802  0.77913  Biso   1.000  H
  H18      1.0000 0.20500  0.79133  0.79104  Biso   1.000  H
  C18      1.0000 0.67429  0.47066  0.72522  Biso   1.000  C
  H19      1.0000 0.57286  0.60762  0.66172  Biso   1.000  H
  H20      1.0000 0.23817  0.12006  0.45400  Biso   1.000  H
  H21      1.0000 0.20429  0.04401  0.53504  Biso   1.000  H
  H22      1.0000 0.23357  0.02826  0.43898  Biso   1.000  H
  C19      1.0000 0.69011  0.82290  0.35927  Biso   1.000  C
  H23      1.0000 0.57905  0.80755  0.46220  Biso   1.000  H
  C20      1.0000 0.49205  0.88103  0.71880  Biso   1.000  C
  C21      1.0000 0.75746  0.49447  0.70901  Biso   1.000  C
  C22      1.0000 0.68127  0.37809  0.77404  Biso   1.000  C
  C23      1.0000 0.76847  0.78394  0.41160  Biso   1.000  C
  C24      1.0000 0.70806  0.85827  0.26739  Biso   1.000  C
  C25      1.0000 0.56815  0.88548  0.76041  Biso   1.000  C
  H24      1.0000 0.51213  0.84792  0.67534  Biso   1.000  H
  H25      1.0000 0.75256  0.55836  0.67634  Biso   1.000  H
  C26      1.0000 0.84765  0.42652  0.73997  Biso   1.000  C
  H26      1.0000 0.62488  0.36126  0.78562  Biso   1.000  H
  C27      1.0000 0.77033  0.30992  0.80593  Biso   1.000  C
  H27      1.0000 0.75739  0.75903  0.47384  Biso   1.000  H
  C28      1.0000 0.86292  0.78057  0.37462  Biso   1.000  C
  H28      1.0000 0.65548  0.88416  0.23060  Biso   1.000  H
  C29      1.0000 0.80134  0.85578  0.23001  Biso   1.000  C
  C30      1.0000 0.66804  0.83802  0.73865  Biso   1.000  C
  C31      1.0000 0.54138  0.93852  0.82041  Biso   1.000  C
  C32      1.0000 0.85331  0.33361  0.78879  Biso   1.000  C
  C33      1.0000 0.93555  0.45259  0.72079  Biso   1.000  C
  H29      1.0000 0.77463  0.24654  0.83960  Biso   1.000  H
  C34      1.0000 0.87871  0.81790  0.28306  Biso   1.000  C
  C35      1.0000 0.94560  0.73794  0.43091  Biso   1.000  C
  H30      1.0000 0.81256  0.88007  0.16776  Biso   1.000  H
  H31      1.0000 0.68671  0.80129  0.69836  Biso   1.000  H
  C36      1.0000 0.74187  0.84329  0.77510  Biso   1.000  C
  H32      1.0000 0.47340  0.97063  0.83629  Biso   1.000  H
  C37      1.0000 0.61358  0.94447  0.85706  Biso   1.000  C
  H33      1.0000 0.91430  0.28640  0.81062  Biso   1.000  H
  H34      1.0000 0.92985  0.51636  0.68718  Biso   1.000  H
  N4       1.0000 0.01798  0.39217  0.74798  Biso   1.000  N
  H35      1.0000 0.94244  0.81727  0.25713  Biso   1.000  H
  H36      1.0000 0.93478  0.71001  0.49270  Biso   1.000  H
  N5       1.0000 0.03093  0.73792  0.39810  Biso   1.000  N
  C38      1.0000 0.71314  0.89789  0.83364  Biso   1.000  C
  C39      1.0000 0.84759  0.79167  0.75129  Biso   1.000  C
  H37      1.0000 0.59489  0.98043  0.89808  Biso   1.000  H
  C40      1.0000 0.10567  0.41814  0.72760  Biso   1.000  C
  C41      1.0000 0.11329  0.69502  0.45393  Biso   1.000  C
  H38      1.0000 0.76216  0.90338  0.85792  Biso   1.000  H
  H39      1.0000 0.86526  0.75158  0.71417  Biso   1.000  H
  N6       1.0000 0.91458  0.80019  0.77966  Biso   1.000  N
  C42      1.0000 0.09025  0.52359  0.68414  Biso   1.000  C
  H40      1.0000 0.15383  0.38102  0.68851  Biso   1.000  H
  H41      1.0000 0.13626  0.39663  0.78350  Biso   1.000  H
  C43      1.0000 0.09281  0.65647  0.55343  Biso   1.000  C
  H42      1.0000 0.14197  0.74398  0.44328  Biso   1.000  H
  H43      1.0000 0.16486  0.64129  0.43310  Biso   1.000  H
  C44      1.0000 0.01920  0.74858  0.75625  Biso   1.000  C
  C45      1.0000 0.10587  0.55930  0.59186  Biso   1.000  C
  C46      1.0000 0.06009  0.58558  0.73766  Biso   1.000  C
  C47      1.0000 0.06110  0.71900  0.60569  Biso   1.000  C
  C48      1.0000 0.04689  0.68242  0.69876  Biso   1.000  C
  H44      1.0000 0.05108  0.70954  0.81208  Biso   1.000  H
  H45      1.0000 0.04952  0.79723  0.72582  Biso   1.000  H
  C49      1.0000 0.13947  0.49188  0.53464  Biso   1.000  C
  C50      1.0000 0.04414  0.54632  0.83741  Biso   1.000  C
  C51      1.0000 0.04301  0.82497  0.56341  Biso   1.000  C
  H46      1.0000 0.11473  0.52890  0.47543  Biso   1.000  H
  H47      1.0000 0.11052  0.44183  0.56169  Biso   1.000  H
  C52      1.0000 0.25236  0.44361  0.52452  Biso   1.000  C
  H48      1.0000 0.99400  0.59844  0.86116  Biso   1.000  H
  H49      1.0000 0.01787  0.49487  0.85137  Biso   1.000  H
  C53      1.0000 0.13962  0.50553  0.88319  Biso   1.000  C
  H50      1.0000 0.99057  0.86241  0.60019  Biso   1.000  H
  H51      1.0000 0.01862  0.84593  0.50447  Biso   1.000  H
  C54      1.0000 0.13638  0.84758  0.55250  Biso   1.000  C
  H52      1.0000 0.27113  0.39959  0.48873  Biso   1.000  H
  H53      1.0000 0.27703  0.40745  0.58300  Biso   1.000  H
  H54      1.0000 0.28103  0.49293  0.49521  Biso   1.000  H
  H55      1.0000 0.12564  0.48108  0.94723  Biso   1.000  H
  H56      1.0000 0.16524  0.55643  0.87076  Biso   1.000  H
  H57      1.0000 0.18911  0.45287  0.86090  Biso   1.000  H
  H58      1.0000 0.12060  0.91672  0.52472  Biso   1.000  H
  H59      1.0000 0.18819  0.81168  0.51519  Biso   1.000  H
  H60      1.0000 0.15984  0.82863  0.61071  Biso   1.000  H
  C55      1.0000 0.54204  0.33983  0.52511  Biso   1.000  C
  C56      1.0000 0.57880  0.27229  0.46782  Biso   1.000  C
  H61      1.0000 0.50067  0.40455  0.49045  Biso   1.000  H
  H62      1.0000 0.49969  0.31663  0.57658  Biso   1.000  H
  C57      1.0000 0.62584  0.34778  0.55852  Biso   1.000  C
  C58      1.0000 0.59787  0.30659  0.37607  Biso   1.000  C
  C59      1.0000 0.59495  0.17388  0.50712  Biso   1.000  C
  H63      1.0000 0.59763  0.39271  0.59424  Biso   1.000  H
  H64      1.0000 0.66590  0.28429  0.59470  Biso   1.000  H
  H65      1.0000 0.66775  0.37153  0.50791  Biso   1.000  H
  C60      1.0000 0.62606  0.24528  0.32282  Biso   1.000  C
  C61      1.0000 0.58838  0.41072  0.33354  Biso   1.000  C
  C62      1.0000 0.62473  0.11184  0.45420  Biso   1.000  C
  C63      1.0000 0.58053  0.13573  0.60688  Biso   1.000  C
  C64      1.0000 0.64069  0.14768  0.36192  Biso   1.000  C
  C65      1.0000 0.64287  0.28402  0.22293  Biso   1.000  C
  H66      1.0000 0.64027  0.41246  0.28372  Biso   1.000  H
  H67      1.0000 0.60336  0.43209  0.37753  Biso   1.000  H
  N7       1.0000 0.49385  0.48146  0.30006  Biso   1.000  N
  C66      1.0000 0.64405  0.00580  0.49733  Biso   1.000  C
  H68      1.0000 0.60249  0.17091  0.63281  Biso   1.000  H
  H69      1.0000 0.62552  0.06731  0.62460  Biso   1.000  H
  N8       1.0000 0.48092  0.14127  0.64763  Biso   1.000  N
  C67      1.0000 0.67445  0.08202  0.30331  Biso   1.000  C
  H70      1.0000 0.62606  0.24753  0.19442  Biso   1.000  H
  H71      1.0000 0.59812  0.35225  0.20342  Biso   1.000  H
  C68      1.0000 0.75048  0.27638  0.19244  Biso   1.000  C
  C69      1.0000 0.42070  0.45729  0.30919  Biso   1.000  C
  H72      1.0000 0.59977  0.99772  0.55237  Biso   1.000  H
  H73      1.0000 0.62869  0.98017  0.45698  Biso   1.000  H
  C70      1.0000 0.75167  0.94815  0.51929  Biso   1.000  C
  C71      1.0000 0.40958  0.17212  0.60046  Biso   1.000  C
  N9       1.0000 0.59909  0.07961  0.26004  Biso   1.000  N
  H74      1.0000 0.70956  0.01560  0.33962  Biso   1.000  H
  H75      1.0000 0.72350  0.10076  0.25654  Biso   1.000  H
  H76      1.0000 0.75731  0.30382  0.12807  Biso   1.000  H
  H77      1.0000 0.76786  0.31193  0.22088  Biso   1.000  H
  H78      1.0000 0.79499  0.20862  0.20897  Biso   1.000  H
  C72      1.0000 0.32570  0.52929  0.27479  Biso   1.000  C
  H79      1.0000 0.42706  0.39234  0.33830  Biso   1.000  H
  H80      1.0000 0.76175  0.87990  0.54602  Biso   1.000  H
  H81      1.0000 0.79570  0.95594  0.46498  Biso   1.000  H
  H82      1.0000 0.76642  0.97169  0.56103  Biso   1.000  H
  C73      1.0000 0.30985  0.17712  0.64075  Biso   1.000  C
  H83      1.0000 0.42094  0.19240  0.53781  Biso   1.000  H
  C74      1.0000 0.50785  0.11899  0.28121  Biso   1.000  C
  C75      1.0000 0.24253  0.50548  0.29100  Biso   1.000  C
  C76      1.0000 0.31869  0.62193  0.22597  Biso   1.000  C
  C77      1.0000 0.23143  0.21608  0.58842  Biso   1.000  C
  C78      1.0000 0.29193  0.14168  0.73263  Biso   1.000  C
  C79      1.0000 0.43177  0.11448  0.23960  Biso   1.000  C
  H84      1.0000 0.48783  0.15210  0.32467  Biso   1.000  H
  C80      1.0000 0.15231  0.57350  0.26004  Biso   1.000  C
  H85      1.0000 0.24740  0.44166  0.32368  Biso   1.000  H
  H86      1.0000 0.37508  0.63876  0.21440  Biso   1.000  H
  C81      1.0000 0.22963  0.69010  0.19409  Biso   1.000  C
  C82      1.0000 0.13707  0.21938  0.62540  Biso   1.000  C
  H87      1.0000 0.24260  0.24092  0.52617  Biso   1.000  H
  H88      1.0000 0.34448  0.11586  0.76941  Biso   1.000  H
  C83      1.0000 0.19865  0.14417  0.77001  Biso   1.000  C
  C84      1.0000 0.33185  0.16200  0.26137  Biso   1.000  C
  C85      1.0000 0.45858  0.06150  0.17960  Biso   1.000  C
  C86      1.0000 0.06444  0.54736  0.27923  Biso   1.000  C
  C87      1.0000 0.14658  0.66641  0.21122  Biso   1.000  C
  H89      1.0000 0.22536  0.75341  0.16042  Biso   1.000  H
  C88      1.0000 0.05436  0.26208  0.56910  Biso   1.000  C
  C89      1.0000 0.12125  0.18212  0.71695  Biso   1.000  C
  H90      1.0000 0.18743  0.11988  0.83225  Biso   1.000  H
  H91      1.0000 0.31328  0.19867  0.30165  Biso   1.000  H
  C90      1.0000 0.25809  0.15673  0.22492  Biso   1.000  C
  H92      1.0000 0.52659  0.02932  0.16373  Biso   1.000  H
  C91      1.0000 0.38641  0.05548  0.14295  Biso   1.000  C
  N10      1.0000 0.98198  0.60785  0.25204  Biso   1.000  N
  H93      1.0000 0.07007  0.48359  0.31283  Biso   1.000  H
  H94      1.0000 0.08566  0.71363  0.18939  Biso   1.000  H
  N11      1.0000 0.96906  0.26203  0.60191  Biso   1.000  N
  H95      1.0000 0.06518  0.29001  0.50732  Biso   1.000  H
  H96      1.0000 0.05748  0.18268  0.74288  Biso   1.000  H
  C92      1.0000 0.28676  0.10213  0.16637  Biso   1.000  C
  C93      1.0000 0.15240  0.20828  0.24873  Biso   1.000  C
  H97      1.0000 0.40507  0.01959  0.10194  Biso   1.000  H
  C94      1.0000 0.89429  0.58188  0.27241  Biso   1.000  C
  C95      1.0000 0.88667  0.30500  0.54608  Biso   1.000  C
  H98      1.0000 0.23780  0.09664  0.14209  Biso   1.000  H
  H99      1.0000 0.13470  0.24844  0.28584  Biso   1.000  H
  N12      1.0000 0.08538  0.19983  0.22035  Biso   1.000  N
  C96      1.0000 0.90971  0.47643  0.31587  Biso   1.000  C
  H100     1.0000 0.84606  0.61900  0.31151  Biso   1.000  H
  H101     1.0000 0.86373  0.60332  0.21651  Biso   1.000  H
  C97      1.0000 0.90718  0.34348  0.44659  Biso   1.000  C
  H102     1.0000 0.85802  0.25597  0.55673  Biso   1.000  H
  H103     1.0000 0.83513  0.35866  0.56692  Biso   1.000  H
  C98      1.0000 0.98079  0.25137  0.24377  Biso   1.000  C
  C99      1.0000 0.93990  0.41437  0.26236  Biso   1.000  C
  C100     1.0000 0.89409  0.44072  0.40816  Biso   1.000  C
  C101     1.0000 0.93886  0.28102  0.39433  Biso   1.000  C
  C102     1.0000 0.95307  0.31760  0.30125  Biso   1.000  C
  H104     1.0000 0.94891  0.29041  0.18794  Biso   1.000  H
  H105     1.0000 0.95047  0.20272  0.27420  Biso   1.000  H
  C103     1.0000 0.95582  0.45370  0.16260  Biso   1.000  C
  C104     1.0000 0.86052  0.50807  0.46538  Biso   1.000  C
  C105     1.0000 0.95698  0.17499  0.43660  Biso   1.000  C
  H106     1.0000 0.00589  0.40158  0.13885  Biso   1.000  H
  H107     1.0000 0.98212  0.50509  0.14864  Biso   1.000  H
  C106     1.0000 0.86034  0.49449  0.11682  Biso   1.000  C
  H108     1.0000 0.88516  0.47112  0.52458  Biso   1.000  H
  H109     1.0000 0.88943  0.55819  0.43832  Biso   1.000  H
  C107     1.0000 0.74760  0.55641  0.47550  Biso   1.000  C
  H110     1.0000 0.00938  0.13761  0.39982  Biso   1.000  H
  H111     1.0000 0.98127  0.15409  0.49554  Biso   1.000  H
  C108     1.0000 0.86361  0.15238  0.44752  Biso   1.000  C
  H112     1.0000 0.87432  0.51894  0.05279  Biso   1.000  H
  H113     1.0000 0.83472  0.44359  0.12926  Biso   1.000  H
  H114     1.0000 0.81088  0.54708  0.13912  Biso   1.000  H
  H115     1.0000 0.72876  0.60043  0.51129  Biso   1.000  H
  H116     1.0000 0.72296  0.59251  0.41702  Biso   1.000  H
  H117     1.0000 0.71893  0.50709  0.50480  Biso   1.000  H
  H118     1.0000 0.87939  0.08323  0.47530  Biso   1.000  H
  H119     1.0000 0.81180  0.18827  0.48483  Biso   1.000  H
  H120     1.0000 0.84012  0.17139  0.38930  Biso   1.000  H
  Ne1      1.0000 0.26816  0.29497  0.38112  Biso   1.000  Ne
  He1      1.0000 0.34521  0.29237  0.41320  Biso   1.000  He
  He2      1.0000 0.35812  0.24223  0.40326  Biso   1.000  He
  He3      1.0000 0.18065  0.32819  0.35141  Biso   1.000  He
  Ar1      1.0000 0.26761  0.29219  0.38437  Biso   1.000  Ar
  Ne2      1.0000 0.73180  0.70502  0.61890  Biso   1.000  Ne
  He4      1.0000 0.81864  0.66971  0.65358  Biso   1.000  He
  He5      1.0000 0.64196  0.75601  0.59749  Biso   1.000  He
  He6      1.0000 0.83308  0.43077  0.38589  Biso   1.000  He
  Ar2      1.0000 0.73239  0.70782  0.61565  Biso   1.000  Ar
