data_image0
_cell_length_a       11.133
_cell_length_b       16.788
_cell_length_c       15.306
_cell_angle_alpha    90
_cell_angle_beta     93.64
_cell_angle_gamma    90

_symmetry_space_group_name_H-M    "P 1"
_symmetry_int_tables_number       1

loop_
  _symmetry_equiv_pos_as_xyz
  'x, y, z'

loop_
  _atom_site_label
  _atom_site_occupancy
  _atom_site_fract_x
  _atom_site_fract_y
  _atom_site_fract_z
  _atom_site_thermal_displace_type
  _atom_site_B_iso_or_equiv
  _atom_site_type_symbol
  C1       1.0000 0.75254  0.17387  0.86441  Biso   1.000  C
  N1       1.0000 0.82514  0.16559  0.79580  Biso   1.000  N
  O1       1.0000 0.65985  0.13700  0.87489  Biso   1.000  O
  N2       1.0000 0.79714  0.23541  0.91750  Biso   1.000  N
  N3       1.0000 0.79723  0.23541  0.91750  Biso   1.000  N
  C2       1.0000 0.79504  0.11163  0.72471  Biso   1.000  C
  C3       1.0000 0.91261  0.22897  0.79351  Biso   1.000  C
  C4       1.0000 0.75245  0.17387  0.86441  Biso   1.000  C
  C5       1.0000 0.89203  0.27841  0.87777  Biso   1.000  C
  C6       1.0000 0.89212  0.27841  0.87783  Biso   1.000  C
  C7       1.0000 0.73238  0.26602  0.99063  Biso   1.000  C
  N4       1.0000 0.87248  0.04330  0.72379  Biso   1.000  N
  H1       1.0000 0.71096  0.09328  0.72870  Biso   1.000  H
  H2       1.0000 0.79931  0.14070  0.66867  Biso   1.000  H
  N5       1.0000 0.03834  0.20640  0.80562  Biso   1.000  N
  N6       1.0000 0.03843  0.20640  0.80562  Biso   1.000  N
  H3       1.0000 0.89786  0.26227  0.73983  Biso   1.000  H
  H4       1.0000 0.86749  0.33429  0.86317  Biso   1.000  H
  N7       1.0000 0.00886  0.27579  0.92582  Biso   1.000  N
  H5       1.0000 0.64806  0.24690  0.98467  Biso   1.000  H
  H6       1.0000 0.73080  0.32487  0.98788  Biso   1.000  H
  N8       1.0000 0.78586  0.24160  0.07430  Biso   1.000  N
  C8       1.0000 0.98818  0.04438  0.68471  Biso   1.000  C
  C9       1.0000 0.83444  0.96623  0.73970  Biso   1.000  C
  C10      1.0000 0.10483  0.16500  0.74101  Biso   1.000  C
  C11      1.0000 0.09364  0.23761  0.88242  Biso   1.000  C
  C12      1.0000 0.03641  0.31773  0.00680  Biso   1.000  C
  C13      1.0000 0.73936  0.18198  0.12307  Biso   1.000  C
  C14      1.0000 0.88599  0.28270  0.12038  Biso   1.000  C
  H7       1.0000 0.98154  0.06928  0.62520  Biso   1.000  H
  C15      1.0000 0.02331  0.95568  0.67973  Biso   1.000  C
  N9       1.0000 0.08433  0.08059  0.73970  Biso   1.000  N
  O2       1.0000 0.73685  0.94770  0.76602  Biso   1.000  O
  N10      1.0000 0.92480  0.91577  0.71810  Biso   1.000  N
  O3       1.0000 0.73694  0.94770  0.76602  Biso   1.000  O
  H8       1.0000 0.08157  0.18710  0.68242  Biso   1.000  H
  H9       1.0000 0.19178  0.17513  0.75338  Biso   1.000  H
  O4       1.0000 0.20172  0.23249  0.90127  Biso   1.000  O
  H10      1.0000 0.99434  0.36973  0.00438  Biso   1.000  H
  H11      1.0000 0.99443  0.36973  0.00438  Biso   1.000  H
  N11      1.0000 0.00178  0.27430  0.08340  Biso   1.000  N
  H12      1.0000 0.12398  0.32833  0.01289  Biso   1.000  H
  O5       1.0000 0.64813  0.14421  0.10389  Biso   1.000  O
  N12      1.0000 0.81140  0.17459  0.19920  Biso   1.000  N
  O6       1.0000 0.64822  0.14421  0.10389  Biso   1.000  O
  H13      1.0000 0.86642  0.33989  0.13079  Biso   1.000  H
  C16      1.0000 0.90289  0.23523  0.20909  Biso   1.000  C
  N13      1.0000 0.13696  0.95229  0.73250  Biso   1.000  N
  H14      1.0000 0.03249  0.93811  0.61813  Biso   1.000  H
  C17      1.0000 0.17603  0.02722  0.75816  Biso   1.000  C
  C18      1.0000 0.17612  0.02722  0.75823  Biso   1.000  C
  C19      1.0000 0.90945  0.83071  0.71816  Biso   1.000  C
  C20      1.0000 0.90954  0.83071  0.71823  Biso   1.000  C
  C21      1.0000 0.08239  0.23541  0.13839  Biso   1.000  C
  C22      1.0000 0.78627  0.11609  0.26631  Biso   1.000  C
  N14      1.0000 0.02667  0.20890  0.20909  Biso   1.000  N
  H15      1.0000 0.89004  0.27031  0.26042  Biso   1.000  H
  H16      1.0000 0.89013  0.27031  0.26042  Biso   1.000  H
  C23      1.0000 0.21368  0.88391  0.73368  Biso   1.000  C
  O7       1.0000 0.27399  0.04462  0.79377  Biso   1.000  O
  N15      1.0000 0.97328  0.79110  0.79089  Biso   1.000  N
  H17      1.0000 0.93750  0.80897  0.66291  Biso   1.000  H
  H18      1.0000 0.82262  0.81850  0.71960  Biso   1.000  H
  O8       1.0000 0.19193  0.22790  0.12759  Biso   1.000  O
  N16      1.0000 0.86299  0.04771  0.26749  Biso   1.000  N
  H19      1.0000 0.70171  0.09822  0.25668  Biso   1.000  H
  H20      1.0000 0.79474  0.14218  0.32431  Biso   1.000  H
  H21      1.0000 0.79483  0.14218  0.32431  Biso   1.000  H
  C24      1.0000 0.09051  0.16929  0.28182  Biso   1.000  C
  H22      1.0000 0.20521  0.85782  0.67567  Biso   1.000  H
  N17      1.0000 0.18864  0.82541  0.80078  Biso   1.000  N
  H23      1.0000 0.29833  0.90178  0.74330  Biso   1.000  H
  C25      1.0000 0.91756  0.76459  0.86160  Biso   1.000  C
  C26      1.0000 0.09706  0.76477  0.79089  Biso   1.000  C
  C27      1.0000 0.82392  0.97278  0.24182  Biso   1.000  C
  C28      1.0000 0.97674  0.04432  0.32032  Biso   1.000  C
  H24      1.0000 0.17742  0.18150  0.28038  Biso   1.000  H
  N18      1.0000 0.07524  0.08423  0.28189  Biso   1.000  N
  H25      1.0000 0.06254  0.19103  0.33708  Biso   1.000  H
  C29      1.0000 0.26059  0.81802  0.87692  Biso   1.000  C
  O9       1.0000 0.80811  0.77210  0.87240  Biso   1.000  O
  N19      1.0000 0.99817  0.72570  0.91659  Biso   1.000  N
  C30      1.0000 0.11396  0.71730  0.87960  Biso   1.000  C
  H26      1.0000 0.10991  0.72969  0.73957  Biso   1.000  H
  N20      1.0000 0.91572  0.91941  0.26028  Biso   1.000  N
  O10      1.0000 0.72596  0.95538  0.20621  Biso   1.000  O
  H27      1.0000 0.96747  0.06189  0.38192  Biso   1.000  H
  C31      1.0000 0.01178  0.95562  0.31528  Biso   1.000  C
  C32      1.0000 0.16560  0.03377  0.26028  Biso   1.000  C
  O11      1.0000 0.35182  0.85579  0.89610  Biso   1.000  O
  N21      1.0000 0.21410  0.75840  0.92569  Biso   1.000  N
  C33      1.0000 0.96363  0.68227  0.99318  Biso   1.000  C
  H28      1.0000 0.13362  0.66011  0.86919  Biso   1.000  H
  C34      1.0000 0.89521  0.83500  0.25898  Biso   1.000  C
  N22      1.0000 0.12747  0.95670  0.27619  Biso   1.000  N
  H29      1.0000 0.01850  0.93072  0.37478  Biso   1.000  H
  O12      1.0000 0.26310  0.05230  0.23397  Biso   1.000  O
  O13      1.0000 0.26311  0.05230  0.23403  Biso   1.000  O
  C35      1.0000 0.26757  0.73398  0.00942  Biso   1.000  C
  H30      1.0000 0.87597  0.67167  0.98710  Biso   1.000  H
  N23      1.0000 0.99110  0.72421  0.07423  Biso   1.000  N
  H31      1.0000 0.00561  0.63027  0.99561  Biso   1.000  H
  N24      1.0000 0.96161  0.79360  0.19436  Biso   1.000  N
  N25      1.0000 0.96162  0.79360  0.19443  Biso   1.000  N
  H32      1.0000 0.80817  0.82487  0.24660  Biso   1.000  H
  H33      1.0000 0.91839  0.81290  0.31763  Biso   1.000  H
  C36      1.0000 0.20500  0.88837  0.27528  Biso   1.000  C
  N26      1.0000 0.20281  0.76459  0.08248  Biso   1.000  N
  H34      1.0000 0.35189  0.75310  0.01531  Biso   1.000  H
  H35      1.0000 0.26924  0.67513  0.01210  Biso   1.000  H
  C37      1.0000 0.90640  0.76239  0.11757  Biso   1.000  C
  C38      1.0000 0.10792  0.72159  0.12222  Biso   1.000  C
  C39      1.0000 0.08743  0.77103  0.20647  Biso   1.000  C
  N27      1.0000 0.17490  0.83441  0.20418  Biso   1.000  N
  H36      1.0000 0.28899  0.90672  0.27128  Biso   1.000  H
  H37      1.0000 0.20073  0.85930  0.33132  Biso   1.000  H
  C40      1.0000 0.24751  0.82613  0.13557  Biso   1.000  C
  O14      1.0000 0.79832  0.76751  0.09871  Biso   1.000  O
  H38      1.0000 0.13246  0.66571  0.13682  Biso   1.000  H
  H39      1.0000 0.10209  0.73773  0.26022  Biso   1.000  H
  O15      1.0000 0.34010  0.86300  0.12510  Biso   1.000  O
  C41      1.0000 0.59047  0.33071  0.78179  Biso   1.000  C
  N28      1.0000 0.52673  0.29110  0.70913  Biso   1.000  N
  N29      1.0000 0.57521  0.41577  0.78192  Biso   1.000  N
  H40      1.0000 0.56251  0.30897  0.83711  Biso   1.000  H
  H41      1.0000 0.67739  0.31850  0.78042  Biso   1.000  H
  C42      1.0000 0.40286  0.26477  0.70913  Biso   1.000  C
  C43      1.0000 0.58245  0.26459  0.63842  Biso   1.000  C
  C44      1.0000 0.47670  0.45568  0.82029  Biso   1.000  C
  C45      1.0000 0.66557  0.46623  0.76032  Biso   1.000  C
  C46      1.0000 0.38596  0.21730  0.62042  Biso   1.000  C
  N30      1.0000 0.31136  0.32541  0.69918  Biso   1.000  N
  H42      1.0000 0.39009  0.22969  0.76039  Biso   1.000  H
  N31      1.0000 0.50184  0.22570  0.58343  Biso   1.000  N
  O16      1.0000 0.69190  0.27210  0.62762  Biso   1.000  O
  N32      1.0000 0.36296  0.45229  0.76752  Biso   1.000  N
  H43      1.0000 0.46753  0.43811  0.88189  Biso   1.000  H
  C47      1.0000 0.51184  0.54438  0.81531  Biso   1.000  C
  N33      1.0000 0.62753  0.54330  0.77623  Biso   1.000  N
  O17      1.0000 0.76307  0.44770  0.73400  Biso   1.000  O
  N34      1.0000 0.28592  0.25840  0.57433  Biso   1.000  N
  H44      1.0000 0.36639  0.16011  0.63083  Biso   1.000  H
  C48      1.0000 0.23942  0.31802  0.62310  Biso   1.000  C
  C49      1.0000 0.28632  0.38391  0.76628  Biso   1.000  C
  C50      1.0000 0.53637  0.18227  0.50677  Biso   1.000  C
  C51      1.0000 0.32389  0.52722  0.74179  Biso   1.000  C
  N35      1.0000 0.41569  0.58059  0.76032  Biso   1.000  N
  H45      1.0000 0.51847  0.56928  0.87482  Biso   1.000  H
  C52      1.0000 0.70497  0.61163  0.77531  Biso   1.000  C
  C53      1.0000 0.23244  0.23398  0.49060  Biso   1.000  C
  O18      1.0000 0.14819  0.35579  0.60392  Biso   1.000  O
  H46      1.0000 0.20168  0.40178  0.75672  Biso   1.000  H
  H47      1.0000 0.29480  0.35782  0.82428  Biso   1.000  H
  N36      1.0000 0.50892  0.22421  0.42579  Biso   1.000  N
  H48      1.0000 0.62404  0.17167  0.51293  Biso   1.000  H
  H49      1.0000 0.49440  0.13027  0.50441  Biso   1.000  H
  O19      1.0000 0.22601  0.54462  0.70618  Biso   1.000  O
  C54      1.0000 0.39518  0.66500  0.75901  Biso   1.000  C
  N37      1.0000 0.67487  0.66559  0.70422  Biso   1.000  N
  H50      1.0000 0.78896  0.59328  0.77132  Biso   1.000  H
  H51      1.0000 0.70069  0.64070  0.83129  Biso   1.000  H
  N38      1.0000 0.29720  0.26459  0.41748  Biso   1.000  N
  H52      1.0000 0.14812  0.25310  0.48471  Biso   1.000  H
  H53      1.0000 0.23077  0.17513  0.48792  Biso   1.000  H
  C55      1.0000 0.39209  0.22159  0.37780  Biso   1.000  C
  C56      1.0000 0.59360  0.26239  0.38239  Biso   1.000  C
  N39      1.0000 0.46158  0.70640  0.69440  Biso   1.000  N
  H54      1.0000 0.41844  0.68710  0.81760  Biso   1.000  H
  H55      1.0000 0.30823  0.67513  0.74657  Biso   1.000  H
  C57      1.0000 0.74748  0.67387  0.63561  Biso   1.000  C
  C58      1.0000 0.58740  0.72897  0.70651  Biso   1.000  C
  C59      1.0000 0.25250  0.32613  0.36438  Biso   1.000  C
  C60      1.0000 0.41257  0.27103  0.29348  Biso   1.000  C
  H56      1.0000 0.36746  0.16571  0.36320  Biso   1.000  H
  N40      1.0000 0.53840  0.29360  0.30559  Biso   1.000  N
  O20      1.0000 0.70169  0.26751  0.40131  Biso   1.000  O
  C61      1.0000 0.40637  0.73761  0.61761  Biso   1.000  C
  N41      1.0000 0.70278  0.73541  0.58252  Biso   1.000  N
  O21      1.0000 0.84006  0.63700  0.62507  Biso   1.000  O
  C62      1.0000 0.60789  0.77841  0.62219  Biso   1.000  C
  H57      1.0000 0.60206  0.76227  0.76019  Biso   1.000  H
  N42      1.0000 0.32511  0.33441  0.29578  Biso   1.000  N
  O22      1.0000 0.15991  0.36300  0.37492  Biso   1.000  O
  H58      1.0000 0.39792  0.23773  0.23980  Biso   1.000  H
  C63      1.0000 0.60479  0.33500  0.24098  Biso   1.000  C
  N43      1.0000 0.49106  0.77579  0.57420  Biso   1.000  N
  O23      1.0000 0.29828  0.73249  0.59869  Biso   1.000  O
  C64      1.0000 0.76763  0.76602  0.50939  Biso   1.000  C
  H59      1.0000 0.63251  0.83429  0.63679  Biso   1.000  H
  C65      1.0000 0.29501  0.38837  0.22468  Biso   1.000  C
  N44      1.0000 0.58429  0.41941  0.23967  Biso   1.000  N
  H60      1.0000 0.58163  0.31290  0.18239  Biso   1.000  H
  H61      1.0000 0.69184  0.32487  0.25342  Biso   1.000  H
  C66      1.0000 0.46360  0.81773  0.49322  Biso   1.000  C
  N45      1.0000 0.71407  0.74160  0.42572  Biso   1.000  N
  H62      1.0000 0.85186  0.74690  0.51528  Biso   1.000  H
  H63      1.0000 0.76921  0.82487  0.51207  Biso   1.000  H
  N46      1.0000 0.37254  0.45670  0.22383  Biso   1.000  N
  H64      1.0000 0.21101  0.40672  0.22867  Biso   1.000  H
  H65      1.0000 0.29928  0.35930  0.16871  Biso   1.000  H
  C67      1.0000 0.48823  0.45562  0.18468  Biso   1.000  C
  C68      1.0000 0.67609  0.47278  0.25820  Biso   1.000  C
  N47      1.0000 0.49823  0.77430  0.41663  Biso   1.000  N
  H66      1.0000 0.37603  0.82833  0.48713  Biso   1.000  H
  H67      1.0000 0.50558  0.86973  0.49558  Biso   1.000  H
  C69      1.0000 0.76064  0.68198  0.37689  Biso   1.000  C
  C70      1.0000 0.61402  0.78270  0.37957  Biso   1.000  C
  C71      1.0000 0.33440  0.53377  0.23967  Biso   1.000  C
  C72      1.0000 0.52328  0.54432  0.17970  Biso   1.000  C
  H68      1.0000 0.48151  0.43072  0.12517  Biso   1.000  H
  N48      1.0000 0.63702  0.54771  0.23247  Biso   1.000  N
  O24      1.0000 0.77396  0.45538  0.29381  Biso   1.000  O
  C73      1.0000 0.41762  0.73541  0.36157  Biso   1.000  C
  N49      1.0000 0.68861  0.67459  0.30082  Biso   1.000  N
  O25      1.0000 0.85178  0.64421  0.39607  Biso   1.000  O
  C74      1.0000 0.59712  0.73523  0.29093  Biso   1.000  C
  H69      1.0000 0.63359  0.83989  0.36923  Biso   1.000  H
  O26      1.0000 0.23691  0.55230  0.26599  Biso   1.000  O
  N50      1.0000 0.42477  0.58423  0.21813  Biso   1.000  N
  H70      1.0000 0.53254  0.56189  0.11810  Biso   1.000  H
  C75      1.0000 0.71374  0.61609  0.23371  Biso   1.000  C
  N51      1.0000 0.47334  0.70890  0.29093  Biso   1.000  N
  O27      1.0000 0.30808  0.72790  0.37237  Biso   1.000  O
  H71      1.0000 0.60988  0.77031  0.23961  Biso   1.000  H
  C76      1.0000 0.40951  0.66929  0.21820  Biso   1.000  C
  H72      1.0000 0.79829  0.59822  0.24327  Biso   1.000  H
  H73      1.0000 0.70518  0.64218  0.17571  Biso   1.000  H
  H74      1.0000 0.43746  0.69103  0.16288  Biso   1.000  H
  H75      1.0000 0.32259  0.68150  0.21957  Biso   1.000  H
