data_image0
_cell_length_a       16.195
_cell_length_b       21.13
_cell_length_c       12.144
_cell_angle_alpha    90
_cell_angle_beta     106.37
_cell_angle_gamma    90

_symmetry_space_group_name_H-M    "P 1"
_symmetry_int_tables_number       1

loop_
  _symmetry_equiv_pos_as_xyz
  'x, y, z'

loop_
  _atom_site_label
  _atom_site_occupancy
  _atom_site_fract_x
  _atom_site_fract_y
  _atom_site_fract_z
  _atom_site_thermal_displace_type
  _atom_site_B_iso_or_equiv
  _atom_site_type_symbol
  C1       1.0000 0.76241  0.49319  0.86811  Biso   1.000  C
  N1       1.0000 0.75783  0.44056  0.79061  Biso   1.000  N
  H1       1.0000 0.82242  0.50232  0.90605  Biso   1.000  H
  H2       1.0000 0.73528  0.48112  0.92673  Biso   1.000  H
  N2       1.0000 0.72129  0.55021  0.81173  Biso   1.000  N
  C2       1.0000 0.69972  0.39281  0.78504  Biso   1.000  C
  C3       1.0000 0.81949  0.42622  0.72565  Biso   1.000  C
  C4       1.0000 0.76571  0.59650  0.75955  Biso   1.000  C
  C5       1.0000 0.64589  0.57402  0.82718  Biso   1.000  C
  N3       1.0000 0.71308  0.34718  0.71269  Biso   1.000  N
  O1       1.0000 0.64648  0.39077  0.83902  Biso   1.000  O
  C6       1.0000 0.78628  0.36100  0.66754  Biso   1.000  C
  N4       1.0000 0.81011  0.46834  0.62635  Biso   1.000  N
  C7       1.0000 0.91227  0.42759  0.80589  Biso   1.000  C
  N5       1.0000 0.77392  0.57837  0.64763  Biso   1.000  N
  H3       1.0000 0.82127  0.60861  0.81207  Biso   1.000  H
  C8       1.0000 0.70249  0.65291  0.73243  Biso   1.000  C
  N6       1.0000 0.63192  0.63204  0.77542  Biso   1.000  N
  O2       1.0000 0.60018  0.54723  0.87678  Biso   1.000  O
  C9       1.0000 0.66142  0.28968  0.69235  Biso   1.000  C
  N7       1.0000 0.75968  0.37648  0.54490  Biso   1.000  N
  C10      1.0000 0.85289  0.30748  0.69844  Biso   1.000  C
  C11      1.0000 0.77260  0.43900  0.52422  Biso   1.000  C
  C12      1.0000 0.83691  0.53398  0.63218  Biso   1.000  C
  H4       1.0000 0.91660  0.39938  0.86932  Biso   1.000  H
  H5       1.0000 0.92639  0.46981  0.83413  Biso   1.000  H
  H6       1.0000 0.95156  0.41429  0.76418  Biso   1.000  H
  C13      1.0000 0.72697  0.61770  0.56163  Biso   1.000  C
  N8       1.0000 0.68158  0.65873  0.60867  Biso   1.000  N
  H7       1.0000 0.72908  0.69162  0.77087  Biso   1.000  H
  C14      1.0000 0.56830  0.67530  0.79345  Biso   1.000  C
  N9       1.0000 0.59090  0.29044  0.58833  Biso   1.000  N
  H8       1.0000 0.69847  0.25409  0.68917  Biso   1.000  H
  H9       1.0000 0.63832  0.28301  0.75689  Biso   1.000  H
  C15      1.0000 0.73029  0.33171  0.45229  Biso   1.000  C
  H10      1.0000 0.86799  0.29981  0.77954  Biso   1.000  H
  H11      1.0000 0.90337  0.31940  0.67698  Biso   1.000  H
  H12      1.0000 0.82897  0.26971  0.65802  Biso   1.000  H
  O3       1.0000 0.75607  0.46294  0.42878  Biso   1.000  O
  H13      1.0000 0.88881  0.53881  0.69518  Biso   1.000  H
  H14      1.0000 0.85116  0.54458  0.56198  Biso   1.000  H
  O4       1.0000 0.72836  0.61557  0.46156  Biso   1.000  O
  C16      1.0000 0.63777  0.71301  0.54833  Biso   1.000  C
  N10      1.0000 0.49550  0.68528  0.69089  Biso   1.000  N
  H15      1.0000 0.54661  0.65920  0.85472  Biso   1.000  H
  H16      1.0000 0.59562  0.71581  0.81808  Biso   1.000  H
  C17      1.0000 0.50801  0.30161  0.58704  Biso   1.000  C
  C18      1.0000 0.59917  0.27151  0.47641  Biso   1.000  C
  N11      1.0000 0.63828  0.31879  0.42131  Biso   1.000  N
  H17      1.0000 0.76110  0.29219  0.47418  Biso   1.000  H
  H18      1.0000 0.74470  0.34770  0.38518  Biso   1.000  H
  N12      1.0000 0.54429  0.71003  0.52233  Biso   1.000  N
  H19      1.0000 0.65800  0.75050  0.59408  Biso   1.000  H
  H20      1.0000 0.65302  0.71751  0.47701  Biso   1.000  H
  C19      1.0000 0.41767  0.65878  0.67878  Biso   1.000  C
  C20      1.0000 0.49597  0.72939  0.60077  Biso   1.000  C
  N13      1.0000 0.45570  0.28997  0.47770  Biso   1.000  N
  O5       1.0000 0.48319  0.31675  0.66943  Biso   1.000  O
  C21      1.0000 0.50400  0.27061  0.39917  Biso   1.000  C
  H21      1.0000 0.62696  0.23010  0.47907  Biso   1.000  H
  C22      1.0000 0.58231  0.34122  0.32124  Biso   1.000  C
  C23      1.0000 0.49197  0.69839  0.41299  Biso   1.000  C
  N14      1.0000 0.36170  0.68121  0.57871  Biso   1.000  N
  O6       1.0000 0.39868  0.62191  0.74607  Biso   1.000  O
  C24      1.0000 0.40081  0.72849  0.52361  Biso   1.000  C
  H22      1.0000 0.51302  0.77189  0.63150  Biso   1.000  H
  C25      1.0000 0.36221  0.28699  0.45169  Biso   1.000  C
  N15      1.0000 0.50448  0.31472  0.30914  Biso   1.000  N
  H23      1.0000 0.48702  0.22811  0.36853  Biso   1.000  H
  O7       1.0000 0.60129  0.37809  0.25387  Biso   1.000  O
  N16      1.0000 0.40908  0.70956  0.41170  Biso   1.000  N
  O8       1.0000 0.51680  0.68325  0.33060  Biso   1.000  O
  C26      1.0000 0.26969  0.66829  0.54773  Biso   1.000  C
  H24      1.0000 0.37300  0.76990  0.52087  Biso   1.000  H
  N17      1.0000 0.31838  0.34127  0.39127  Biso   1.000  N
  H25      1.0000 0.34197  0.24950  0.40586  Biso   1.000  H
  H26      1.0000 0.34703  0.28249  0.52301  Biso   1.000  H
  C27      1.0000 0.43168  0.32470  0.20658  Biso   1.000  C
  C28      1.0000 0.33857  0.71032  0.30768  Biso   1.000  C
  N18      1.0000 0.24031  0.62352  0.45513  Biso   1.000  N
  H27      1.0000 0.23889  0.70781  0.52585  Biso   1.000  H
  H28      1.0000 0.25529  0.65230  0.61485  Biso   1.000  H
  C29      1.0000 0.29749  0.34709  0.26760  Biso   1.000  C
  C30      1.0000 0.27301  0.38230  0.43839  Biso   1.000  C
  N19      1.0000 0.36812  0.36796  0.22460  Biso   1.000  N
  H29      1.0000 0.45337  0.34080  0.14530  Biso   1.000  H
  H30      1.0000 0.40441  0.28419  0.18186  Biso   1.000  H
  N20      1.0000 0.28691  0.65282  0.28734  Biso   1.000  N
  H31      1.0000 0.30149  0.74591  0.31077  Biso   1.000  H
  H32      1.0000 0.36173  0.71699  0.24314  Biso   1.000  H
  C31      1.0000 0.22739  0.56100  0.47581  Biso   1.000  C
  C32      1.0000 0.21371  0.63900  0.33248  Biso   1.000  C
  C33      1.0000 0.23427  0.40350  0.24048  Biso   1.000  C
  H33      1.0000 0.27089  0.30838  0.22907  Biso   1.000  H
  N21      1.0000 0.22613  0.42163  0.35239  Biso   1.000  N
  O9       1.0000 0.27161  0.38443  0.53838  Biso   1.000  O
  C34      1.0000 0.35408  0.42598  0.17276  Biso   1.000  C
  C35      1.0000 0.30027  0.60719  0.21499  Biso   1.000  C
  N22      1.0000 0.18987  0.53166  0.37368  Biso   1.000  N
  O10      1.0000 0.24391  0.53706  0.57125  Biso   1.000  O
  C36      1.0000 0.18049  0.57378  0.27438  Biso   1.000  C
  C37      1.0000 0.14710  0.69252  0.30159  Biso   1.000  C
  H34      1.0000 0.17870  0.39139  0.18787  Biso   1.000  H
  N23      1.0000 0.27870  0.44979  0.18830  Biso   1.000  N
  C38      1.0000 0.16314  0.46602  0.36784  Biso   1.000  C
  O11      1.0000 0.39980  0.45277  0.12324  Biso   1.000  O
  N24      1.0000 0.24222  0.55944  0.20941  Biso   1.000  N
  O12      1.0000 0.35351  0.60923  0.16101  Biso   1.000  O
  C39      1.0000 0.08771  0.57241  0.19413  Biso   1.000  C
  H35      1.0000 0.13199  0.70019  0.22048  Biso   1.000  H
  H36      1.0000 0.09661  0.68060  0.32304  Biso   1.000  H
  H37      1.0000 0.17101  0.73029  0.34201  Biso   1.000  H
  C40      1.0000 0.23757  0.50681  0.13191  Biso   1.000  C
  H38      1.0000 0.11121  0.46119  0.30476  Biso   1.000  H
  H39      1.0000 0.14881  0.45542  0.43796  Biso   1.000  H
  H40      1.0000 0.08338  0.60062  0.13071  Biso   1.000  H
  H41      1.0000 0.07359  0.53019  0.16590  Biso   1.000  H
  H42      1.0000 0.04841  0.58571  0.23576  Biso   1.000  H
  H43      1.0000 0.17756  0.49768  0.09398  Biso   1.000  H
  H44      1.0000 0.26470  0.51888  0.07329  Biso   1.000  H
  N25      1.0000 0.54425  0.78997  0.02234  Biso   1.000  N
  H45      1.0000 0.65304  0.78249  0.97702  Biso   1.000  H
  H46      1.0000 0.65298  0.78249  0.97702  Biso   1.000  H
  H47      1.0000 0.65796  0.74950  0.09409  Biso   1.000  H
  N26      1.0000 0.68156  0.84127  0.10876  Biso   1.000  N
  N27      1.0000 0.68155  0.84127  0.10868  Biso   1.000  N
  C41      1.0000 0.49200  0.80161  0.91300  Biso   1.000  C
  C42      1.0000 0.49601  0.77061  0.10087  Biso   1.000  C
  C43      1.0000 0.49593  0.77061  0.10078  Biso   1.000  C
  C44      1.0000 0.63774  0.78699  0.04834  Biso   1.000  C
  C45      1.0000 0.70245  0.84709  0.23244  Biso   1.000  C
  C46      1.0000 0.72699  0.88230  0.06165  Biso   1.000  C
  C47      1.0000 0.72693  0.88230  0.06165  Biso   1.000  C
  N28      1.0000 0.40911  0.79044  0.91171  Biso   1.000  N
  O13      1.0000 0.51682  0.81675  0.83061  Biso   1.000  O
  C48      1.0000 0.40077  0.77151  0.02363  Biso   1.000  C
  H48      1.0000 0.51298  0.72811  0.13151  Biso   1.000  H
  N29      1.0000 0.49546  0.81472  0.19090  Biso   1.000  N
  N30      1.0000 0.63188  0.86796  0.27544  Biso   1.000  N
  H49      1.0000 0.72904  0.80838  0.27089  Biso   1.000  H
  C49      1.0000 0.76565  0.90350  0.25947  Biso   1.000  C
  O14      1.0000 0.72838  0.88443  0.96158  Biso   1.000  O
  N31      1.0000 0.77388  0.92163  0.14764  Biso   1.000  N
  C50      1.0000 0.33865  0.78968  0.80769  Biso   1.000  C
  C51      1.0000 0.33859  0.78968  0.80769  Biso   1.000  C
  H50      1.0000 0.37298  0.73010  0.02097  Biso   1.000  H
  N32      1.0000 0.36166  0.81879  0.07873  Biso   1.000  N
  H51      1.0000 0.37296  0.73010  0.02088  Biso   1.000  H
  C52      1.0000 0.41764  0.84122  0.17880  Biso   1.000  C
  C53      1.0000 0.56825  0.82470  0.29337  Biso   1.000  C
  C54      1.0000 0.64585  0.92598  0.32719  Biso   1.000  C
  N33      1.0000 0.72125  0.94979  0.31174  Biso   1.000  N
  H52      1.0000 0.82123  0.89139  0.31208  Biso   1.000  H
  C55      1.0000 0.83687  0.96602  0.13220  Biso   1.000  C
  H53      1.0000 0.30151  0.75409  0.81078  Biso   1.000  H
  H54      1.0000 0.36175  0.78301  0.74315  Biso   1.000  H
  H55      1.0000 0.36167  0.78301  0.74307  Biso   1.000  H
  N34      1.0000 0.28691  0.84718  0.78727  Biso   1.000  N
  C56      1.0000 0.26966  0.83171  0.04774  Biso   1.000  C
  O15      1.0000 0.39872  0.87809  0.24617  Biso   1.000  O
  O16      1.0000 0.39864  0.87809  0.24608  Biso   1.000  O
  H56      1.0000 0.54658  0.84080  0.35474  Biso   1.000  H
  H57      1.0000 0.59558  0.78419  0.31809  Biso   1.000  H
  O17      1.0000 0.60014  0.95277  0.37679  Biso   1.000  O
  C57      1.0000 0.76237  0.00681  0.36813  Biso   1.000  C
  H58      1.0000 0.88878  0.96119  0.19519  Biso   1.000  H
  H59      1.0000 0.85118  0.95542  0.06199  Biso   1.000  H
  H60      1.0000 0.88871  0.96119  0.19519  Biso   1.000  H
  H61      1.0000 0.85112  0.95542  0.06199  Biso   1.000  H
  N35      1.0000 0.81007  0.03166  0.12636  Biso   1.000  N
  N36      1.0000 0.81006  0.03166  0.12627  Biso   1.000  N
  C58      1.0000 0.21373  0.86100  0.83250  Biso   1.000  C
  C59      1.0000 0.30029  0.89281  0.71500  Biso   1.000  C
  N37      1.0000 0.24033  0.87648  0.95514  Biso   1.000  N
  H62      1.0000 0.23891  0.79219  0.02586  Biso   1.000  H
  H63      1.0000 0.25531  0.84770  0.11486  Biso   1.000  H
  H64      1.0000 0.23883  0.79219  0.02577  Biso   1.000  H
  H65      1.0000 0.25523  0.84770  0.11477  Biso   1.000  H
  H66      1.0000 0.82236  0.99768  0.40597  Biso   1.000  H
  H67      1.0000 0.73530  0.01888  0.42674  Biso   1.000  H
  N38      1.0000 0.75779  0.05944  0.29063  Biso   1.000  N
  H68      1.0000 0.73524  0.01888  0.42674  Biso   1.000  H
  N39      1.0000 0.75773  0.05944  0.29063  Biso   1.000  N
  C60      1.0000 0.81945  0.07378  0.22566  Biso   1.000  C
  C61      1.0000 0.77256  0.06100  0.02423  Biso   1.000  C
  C62      1.0000 0.81943  0.07378  0.22557  Biso   1.000  C
  C63      1.0000 0.18052  0.92622  0.77439  Biso   1.000  C
  C64      1.0000 0.14712  0.80748  0.80160  Biso   1.000  C
  N40      1.0000 0.24224  0.94056  0.70942  Biso   1.000  N
  O18      1.0000 0.35353  0.89077  0.66102  Biso   1.000  O
  C65      1.0000 0.22741  0.93900  0.97582  Biso   1.000  C
  C66      1.0000 0.69968  0.10719  0.28505  Biso   1.000  C
  C67      1.0000 0.91224  0.07241  0.30590  Biso   1.000  C
  C68      1.0000 0.78624  0.13900  0.16755  Biso   1.000  C
  O19      1.0000 0.75609  0.03706  0.92879  Biso   1.000  O
  N41      1.0000 0.75964  0.12352  0.04491  Biso   1.000  N
  C69      1.0000 0.08773  0.92759  0.69415  Biso   1.000  C
  N42      1.0000 0.18989  0.96834  0.87369  Biso   1.000  N
  H69      1.0000 0.13202  0.79981  0.72050  Biso   1.000  H
  H70      1.0000 0.17104  0.76971  0.84202  Biso   1.000  H
  H71      1.0000 0.09662  0.81940  0.82297  Biso   1.000  H
  C70      1.0000 0.23760  0.99319  0.63192  Biso   1.000  C
  O20      1.0000 0.24386  0.96294  0.07117  Biso   1.000  O
  N43      1.0000 0.71304  0.15282  0.21270  Biso   1.000  N
  O21      1.0000 0.64644  0.10923  0.33903  Biso   1.000  O
  C71      1.0000 0.85285  0.19252  0.19845  Biso   1.000  C
  H72      1.0000 0.91656  0.10062  0.36933  Biso   1.000  H
  H73      1.0000 0.92635  0.03019  0.33414  Biso   1.000  H
  H74      1.0000 0.95152  0.08571  0.26419  Biso   1.000  H
  C72      1.0000 0.73031  0.16829  0.95231  Biso   1.000  C
  H75      1.0000 0.08341  0.89938  0.63072  Biso   1.000  H
  H76      1.0000 0.07361  0.96981  0.66591  Biso   1.000  H
  H77      1.0000 0.04843  0.91429  0.73577  Biso   1.000  H
  C73      1.0000 0.16316  0.03398  0.86786  Biso   1.000  C
  C74      1.0000 0.16308  0.03398  0.86777  Biso   1.000  C
  H78      1.0000 0.26473  0.98112  0.57331  Biso   1.000  H
  H79      1.0000 0.17765  0.00232  0.59399  Biso   1.000  H
  N44      1.0000 0.27872  0.05021  0.68831  Biso   1.000  N
  H80      1.0000 0.17759  0.00232  0.59399  Biso   1.000  H
  C75      1.0000 0.66138  0.21032  0.19236  Biso   1.000  C
  C76      1.0000 0.66136  0.21032  0.19227  Biso   1.000  C
  H81      1.0000 0.86795  0.20019  0.27956  Biso   1.000  H
  H82      1.0000 0.90333  0.18060  0.17700  Biso   1.000  H
  H83      1.0000 0.82893  0.23029  0.15803  Biso   1.000  H
  H84      1.0000 0.76112  0.20781  0.97419  Biso   1.000  H
  H85      1.0000 0.74472  0.15230  0.88519  Biso   1.000  H
  N45      1.0000 0.63831  0.18121  0.92132  Biso   1.000  N
  N46      1.0000 0.22615  0.07837  0.85241  Biso   1.000  N
  H86      1.0000 0.11124  0.03881  0.80478  Biso   1.000  H
  H87      1.0000 0.14883  0.04458  0.93797  Biso   1.000  H
  N47      1.0000 0.22609  0.07837  0.85241  Biso   1.000  N
  C77      1.0000 0.23430  0.09650  0.74049  Biso   1.000  C
  C78      1.0000 0.35410  0.07402  0.67278  Biso   1.000  C
  H88      1.0000 0.63828  0.21699  0.25690  Biso   1.000  H
  N48      1.0000 0.59086  0.20956  0.08834  Biso   1.000  N
  H89      1.0000 0.69844  0.24591  0.18918  Biso   1.000  H
  C79      1.0000 0.58233  0.15878  0.82125  Biso   1.000  C
  C80      1.0000 0.58231  0.15878  0.82117  Biso   1.000  C
  C81      1.0000 0.59926  0.22849  0.97642  Biso   1.000  C
  C82      1.0000 0.59919  0.22849  0.97642  Biso   1.000  C
  C83      1.0000 0.27304  0.11770  0.93840  Biso   1.000  C
  N49      1.0000 0.36814  0.13204  0.72462  Biso   1.000  N
  O22      1.0000 0.39981  0.04723  0.62317  Biso   1.000  O
  N50      1.0000 0.36808  0.13204  0.72462  Biso   1.000  N
  H90      1.0000 0.17872  0.10861  0.68788  Biso   1.000  H
  C84      1.0000 0.29752  0.15291  0.76761  Biso   1.000  C
  C85      1.0000 0.50797  0.19839  0.08705  Biso   1.000  C
  N51      1.0000 0.50450  0.18528  0.80915  Biso   1.000  N
  N52      1.0000 0.50449  0.18528  0.80907  Biso   1.000  N
  O23      1.0000 0.60131  0.12191  0.75388  Biso   1.000  O
  C86      1.0000 0.50402  0.22939  0.89918  Biso   1.000  C
  H91      1.0000 0.62699  0.26990  0.97908  Biso   1.000  H
  N53      1.0000 0.31840  0.15873  0.89129  Biso   1.000  N
  O24      1.0000 0.27157  0.11557  0.03839  Biso   1.000  O
  C87      1.0000 0.43170  0.17530  0.70659  Biso   1.000  C
  H92      1.0000 0.27093  0.19162  0.72916  Biso   1.000  H
  H93      1.0000 0.27091  0.19162  0.72908  Biso   1.000  H
  N54      1.0000 0.45572  0.21003  0.97771  Biso   1.000  N
  O25      1.0000 0.48315  0.18325  0.16944  Biso   1.000  O
  H94      1.0000 0.48705  0.27189  0.86854  Biso   1.000  H
  H95      1.0000 0.48698  0.27189  0.86854  Biso   1.000  H
  C88      1.0000 0.36223  0.21301  0.95171  Biso   1.000  C
  H96      1.0000 0.45339  0.15920  0.64531  Biso   1.000  H
  H97      1.0000 0.40445  0.21581  0.68196  Biso   1.000  H
  H98      1.0000 0.40437  0.21581  0.68187  Biso   1.000  H
  H99      1.0000 0.34207  0.25050  0.90596  Biso   1.000  H
  H100     1.0000 0.34199  0.25050  0.90588  Biso   1.000  H
  H101     1.0000 0.34699  0.21751  0.02303  Biso   1.000  H
  Ne1      1.0000 0.49999  0.50000  0.50001  Biso   1.000  Ne
  He1      1.0000 0.43240  0.46813  0.70974  Biso   1.000  He
  He2      1.0000 0.56924  0.53273  0.28473  Biso   1.000  He
  Ar1      1.0000 0.49998  0.49999  0.49998  Biso   1.000  Ar
  Ne2      1.0000 0.50588  0.00335  0.00214  Biso   1.000  Ne
  He3      1.0000 0.42927  0.03355  0.22018  Biso   1.000  He
  He4      1.0000 0.56999  0.96684  0.78215  Biso   1.000  He
  Ar2      1.0000 0.50216  0.00067  0.99944  Biso   1.000  Ar
