data_image0
_cell_length_a       12.467
_cell_length_b       25.707
_cell_length_c       21.479
_cell_angle_alpha    90
_cell_angle_beta     92.39
_cell_angle_gamma    90

_symmetry_space_group_name_H-M    "P 1"
_symmetry_int_tables_number       1

loop_
  _symmetry_equiv_pos_as_xyz
  'x, y, z'

loop_
  _atom_site_label
  _atom_site_occupancy
  _atom_site_fract_x
  _atom_site_fract_y
  _atom_site_fract_z
  _atom_site_thermal_displace_type
  _atom_site_B_iso_or_equiv
  _atom_site_type_symbol
  C1       1.0000 0.52666  0.43140  0.42301  Biso   1.000  C
  C2       1.0000 0.43388  0.42218  0.37539  Biso   1.000  C
  H1       1.0000 0.50107  0.42829  0.46430  Biso   1.000  H
  H2       1.0000 0.55562  0.46559  0.41742  Biso   1.000  H
  H3       1.0000 0.58182  0.40588  0.41710  Biso   1.000  H
  N1       1.0000 0.37467  0.37352  0.38401  Biso   1.000  N
  N2       1.0000 0.46997  0.42654  0.31155  Biso   1.000  N
  C3       1.0000 0.34279  0.46275  0.37800  Biso   1.000  C
  C4       1.0000 0.42556  0.32411  0.39240  Biso   1.000  C
  C5       1.0000 0.26929  0.38044  0.39324  Biso   1.000  C
  C6       1.0000 0.56788  0.40149  0.28998  Biso   1.000  C
  C7       1.0000 0.41260  0.46478  0.27670  Biso   1.000  C
  N3       1.0000 0.24860  0.43229  0.39002  Biso   1.000  N
  N4       1.0000 0.34167  0.48524  0.31547  Biso   1.000  N
  C8       1.0000 0.37510  0.50169  0.43028  Biso   1.000  C
  N5       1.0000 0.45222  0.29708  0.33480  Biso   1.000  N
  H4       1.0000 0.37878  0.30179  0.41560  Biso   1.000  H
  H5       1.0000 0.49130  0.32890  0.41761  Biso   1.000  H
  O1       1.0000 0.20415  0.34621  0.40321  Biso   1.000  O
  N6       1.0000 0.54992  0.35282  0.26556  Biso   1.000  N
  H6       1.0000 0.59883  0.42339  0.25862  Biso   1.000  H
  H7       1.0000 0.61979  0.39892  0.32479  Biso   1.000  H
  O2       1.0000 0.42697  0.47575  0.22334  Biso   1.000  O
  C9       1.0000 0.14749  0.45385  0.40493  Biso   1.000  C
  C10      1.0000 0.28141  0.53172  0.29729  Biso   1.000  C
  H8       1.0000 0.43806  0.52040  0.41901  Biso   1.000  H
  H9       1.0000 0.38987  0.48310  0.46840  Biso   1.000  H
  H10      1.0000 0.31742  0.52581  0.43578  Biso   1.000  H
  C11      1.0000 0.39845  0.25254  0.31542  Biso   1.000  C
  C12      1.0000 0.54997  0.30591  0.30200  Biso   1.000  C
  C13      1.0000 0.54176  0.34314  0.20331  Biso   1.000  C
  H11      1.0000 0.15959  0.48450  0.43052  Biso   1.000  H
  H12      1.0000 0.10888  0.42872  0.42921  Biso   1.000  H
  N7       1.0000 0.08277  0.46769  0.35051  Biso   1.000  N
  H13      1.0000 0.28186  0.55522  0.33261  Biso   1.000  H
  H14      1.0000 0.31858  0.54899  0.26430  Biso   1.000  H
  N8       1.0000 0.17388  0.52371  0.27656  Biso   1.000  N
  N9       1.0000 0.45091  0.23262  0.26738  Biso   1.000  N
  O3       1.0000 0.32205  0.23324  0.34165  Biso   1.000  O
  C14      1.0000 0.54573  0.26191  0.25191  Biso   1.000  C
  N10      1.0000 0.53587  0.28973  0.19496  Biso   1.000  N
  O4       1.0000 0.54129  0.37566  0.16104  Biso   1.000  O
  C15      1.0000 0.08728  0.52036  0.32050  Biso   1.000  C
  C16      1.0000 0.99326  0.44151  0.33159  Biso   1.000  C
  C17      1.0000 0.13713  0.52916  0.21728  Biso   1.000  C
  C18      1.0000 0.41676  0.18299  0.23979  Biso   1.000  C
  C19      1.0000 0.64972  0.23079  0.25792  Biso   1.000  C
  C20      1.0000 0.53281  0.26709  0.13341  Biso   1.000  C
  C21      1.0000 0.98680  0.52145  0.27740  Biso   1.000  C
  N11      1.0000 0.93599  0.47061  0.28802  Biso   1.000  N
  O5       1.0000 0.96362  0.39826  0.35111  Biso   1.000  O
  N12      1.0000 0.02940  0.52468  0.21500  Biso   1.000  N
  O6       1.0000 0.19190  0.53639  0.17241  Biso   1.000  O
  N13      1.0000 0.35031  0.18758  0.18462  Biso   1.000  N
  H15      1.0000 0.48016  0.16311  0.23019  Biso   1.000  H
  H16      1.0000 0.37829  0.16350  0.27041  Biso   1.000  H
  H17      1.0000 0.65309  0.21278  0.29711  Biso   1.000  H
  H18      1.0000 0.70972  0.25402  0.25582  Biso   1.000  H
  H19      1.0000 0.65157  0.20601  0.22451  Biso   1.000  H
  N14      1.0000 0.42701  0.24865  0.11230  Biso   1.000  N
  H20      1.0000 0.58267  0.23811  0.13308  Biso   1.000  H
  H21      1.0000 0.55701  0.29280  0.10410  Biso   1.000  H
  C22      1.0000 0.91490  0.56751  0.28918  Biso   1.000  C
  C23      1.0000 0.83349  0.45563  0.26360  Biso   1.000  C
  C24      1.0000 0.96807  0.53215  0.15741  Biso   1.000  C
  C25      1.0000 0.24040  0.18699  0.18429  Biso   1.000  C
  C26      1.0000 0.39058  0.19699  0.12209  Biso   1.000  C
  C27      1.0000 0.36884  0.27491  0.06845  Biso   1.000  C
  H22      1.0000 0.88728  0.56471  0.33010  Biso   1.000  H
  H23      1.0000 0.85632  0.56790  0.25871  Biso   1.000  H
  H24      1.0000 0.95551  0.59910  0.28620  Biso   1.000  H
  N15      1.0000 0.83151  0.43148  0.20368  Biso   1.000  N
  H25      1.0000 0.78807  0.48629  0.26109  Biso   1.000  H
  H26      1.0000 0.80222  0.43179  0.29282  Biso   1.000  H
  N16      1.0000 0.92992  0.48240  0.12870  Biso   1.000  N
  H27      1.0000 0.01210  0.55032  0.12828  Biso   1.000  H
  H28      1.0000 0.90663  0.55401  0.16519  Biso   1.000  H
  O7       1.0000 0.18810  0.18011  0.23010  Biso   1.000  O
  N17      1.0000 0.19893  0.19450  0.12507  Biso   1.000  N
  C28      1.0000 0.27983  0.19466  0.07889  Biso   1.000  C
  C29      1.0000 0.46536  0.15432  0.09231  Biso   1.000  C
  N18      1.0000 0.28697  0.24320  0.04543  Biso   1.000  N
  O8       1.0000 0.38579  0.31937  0.04874  Biso   1.000  O
  C30      1.0000 0.82213  0.37947  0.19478  Biso   1.000  C
  C31      1.0000 0.83070  0.45851  0.14329  Biso   1.000  C
  C32      1.0000 0.97532  0.46061  0.08075  Biso   1.000  C
  C33      1.0000 0.08809  0.18547  0.10848  Biso   1.000  C
  C34      1.0000 0.28270  0.14599  0.04511  Biso   1.000  C
  H29      1.0000 0.43661  0.12032  0.09958  Biso   1.000  H
  H30      1.0000 0.53642  0.15669  0.11109  Biso   1.000  H
  H31      1.0000 0.46814  0.16019  0.04832  Biso   1.000  H
  C35      1.0000 0.21588  0.25806  0.99264  Biso   1.000  C
  N19      1.0000 0.81663  0.36772  0.13388  Biso   1.000  N
  O9       1.0000 0.82012  0.34683  0.23718  Biso   1.000  O
  C36      1.0000 0.82393  0.41471  0.09371  Biso   1.000  C
  N20      1.0000 0.91711  0.41899  0.06095  Biso   1.000  N
  O10      1.0000 0.05817  0.47489  0.05722  Biso   1.000  O
  H32      1.0000 0.05432  0.17050  0.14422  Biso   1.000  H
  H33      1.0000 0.08394  0.15992  0.07530  Biso   1.000  H
  N21      1.0000 0.02638  0.23161  0.08807  Biso   1.000  N
  H34      1.0000 0.33749  0.14759  0.01510  Biso   1.000  H
  H35      1.0000 0.21429  0.14000  0.02409  Biso   1.000  H
  H36      1.0000 0.29824  0.11798  0.07381  Biso   1.000  H
  N22      1.0000 0.11691  0.28097  0.00839  Biso   1.000  N
  H37      1.0000 0.25367  0.28241  0.96701  Biso   1.000  H
  H38      1.0000 0.20053  0.22729  0.96761  Biso   1.000  H
  C37      1.0000 0.80442  0.31528  0.11020  Biso   1.000  C
  C38      1.0000 0.72330  0.42082  0.05401  Biso   1.000  C
  C39      1.0000 0.93673  0.39083  0.00359  Biso   1.000  C
  C40      1.0000 0.02007  0.25141  0.02372  Biso   1.000  C
  C41      1.0000 0.95277  0.25464  0.12530  Biso   1.000  C
  C42      1.0000 0.09339  0.33275  0.99916  Biso   1.000  C
  N23      1.0000 0.89897  0.29050  0.08989  Biso   1.000  N
  H39      1.0000 0.77490  0.29401  0.14259  Biso   1.000  H
  H40      1.0000 0.75203  0.31591  0.07549  Biso   1.000  H
  H41      1.0000 0.66216  0.41720  0.07940  Biso   1.000  H
  H42      1.0000 0.72069  0.39448  0.02218  Biso   1.000  H
  H43      1.0000 0.72233  0.45458  0.03490  Biso   1.000  H
  N24      1.0000 0.99038  0.34072  0.01239  Biso   1.000  N
  H44      1.0000 0.98002  0.41249  0.97759  Biso   1.000  H
  H45      1.0000 0.86840  0.38511  0.98141  Biso   1.000  H
  C43      1.0000 0.98849  0.20979  0.97712  Biso   1.000  C
  C44      1.0000 0.93313  0.29416  0.02600  Biso   1.000  C
  O11      1.0000 0.93912  0.24351  0.17861  Biso   1.000  O
  O12      1.0000 0.15731  0.36531  0.98127  Biso   1.000  O
  H46      1.0000 0.98497  0.22449  0.93588  Biso   1.000  H
  H47      1.0000 0.91938  0.19602  0.98649  Biso   1.000  H
  H48      1.0000 0.04076  0.18240  0.97898  Biso   1.000  H
  C45      1.0000 0.62487  0.49831  0.56970  Biso   1.000  C
  C46      1.0000 0.65718  0.53725  0.62199  Biso   1.000  C
  H49      1.0000 0.56191  0.47960  0.58098  Biso   1.000  H
  H50      1.0000 0.61010  0.51690  0.53159  Biso   1.000  H
  H51      1.0000 0.68255  0.47419  0.56420  Biso   1.000  H
  C47      1.0000 0.56609  0.57782  0.62459  Biso   1.000  C
  N25      1.0000 0.65831  0.51476  0.68452  Biso   1.000  N
  N26      1.0000 0.75137  0.56771  0.60996  Biso   1.000  N
  C48      1.0000 0.47332  0.56860  0.57702  Biso   1.000  C
  N27      1.0000 0.53001  0.57346  0.68848  Biso   1.000  N
  N28      1.0000 0.62531  0.62648  0.61602  Biso   1.000  N
  C49      1.0000 0.71857  0.46828  0.70269  Biso   1.000  C
  C50      1.0000 0.58738  0.53522  0.72334  Biso   1.000  C
  C51      1.0000 0.85249  0.54615  0.59505  Biso   1.000  C
  C52      1.0000 0.73069  0.61956  0.60675  Biso   1.000  C
  H52      1.0000 0.49890  0.57171  0.53569  Biso   1.000  H
  H53      1.0000 0.44436  0.53441  0.58261  Biso   1.000  H
  H54      1.0000 0.41815  0.59412  0.58289  Biso   1.000  H
  C53      1.0000 0.43210  0.59851  0.71001  Biso   1.000  C
  C54      1.0000 0.57441  0.67589  0.60759  Biso   1.000  C
  H55      1.0000 0.71812  0.44478  0.66742  Biso   1.000  H
  H56      1.0000 0.68140  0.45101  0.73568  Biso   1.000  H
  N29      1.0000 0.82610  0.47629  0.72343  Biso   1.000  N
  O13      1.0000 0.57301  0.52425  0.77669  Biso   1.000  O
  H57      1.0000 0.84039  0.51550  0.56952  Biso   1.000  H
  H58      1.0000 0.89110  0.57128  0.57082  Biso   1.000  H
  N30      1.0000 0.91720  0.53231  0.64948  Biso   1.000  N
  O14      1.0000 0.79575  0.65379  0.59682  Biso   1.000  O
  H59      1.0000 0.40115  0.57661  0.74141  Biso   1.000  H
  H60      1.0000 0.38019  0.60108  0.67520  Biso   1.000  H
  N31      1.0000 0.45005  0.64718  0.73443  Biso   1.000  N
  H61      1.0000 0.62119  0.69821  0.58438  Biso   1.000  H
  H62      1.0000 0.50867  0.67110  0.58238  Biso   1.000  H
  N32      1.0000 0.54775  0.70292  0.66518  Biso   1.000  N
  C55      1.0000 0.86284  0.47084  0.78270  Biso   1.000  C
  C56      1.0000 0.91270  0.47964  0.67953  Biso   1.000  C
  C57      1.0000 0.00672  0.55849  0.66844  Biso   1.000  C
  C58      1.0000 0.45814  0.65686  0.79668  Biso   1.000  C
  C59      1.0000 0.45000  0.69409  0.69799  Biso   1.000  C
  C60      1.0000 0.60144  0.74746  0.68461  Biso   1.000  C
  N33      1.0000 0.97057  0.47532  0.78503  Biso   1.000  N
  O15      1.0000 0.80808  0.46361  0.82762  Biso   1.000  O
  C61      1.0000 0.01317  0.47855  0.72259  Biso   1.000  C
  N34      1.0000 0.06399  0.52939  0.71197  Biso   1.000  N
  O16      1.0000 0.03635  0.60174  0.64892  Biso   1.000  O
  N35      1.0000 0.46411  0.71027  0.80502  Biso   1.000  N
  O17      1.0000 0.45869  0.62434  0.83894  Biso   1.000  O
  C62      1.0000 0.45424  0.73809  0.74808  Biso   1.000  C
  N36      1.0000 0.54907  0.76738  0.73261  Biso   1.000  N
  O18      1.0000 0.67784  0.76676  0.65833  Biso   1.000  O
  C63      1.0000 0.03190  0.46785  0.84258  Biso   1.000  C
  C64      1.0000 0.08508  0.43249  0.71080  Biso   1.000  C
  C65      1.0000 0.16649  0.54437  0.73638  Biso   1.000  C
  C66      1.0000 0.46717  0.73291  0.86658  Biso   1.000  C
  C67      1.0000 0.35026  0.76921  0.74211  Biso   1.000  C
  C68      1.0000 0.58321  0.81701  0.76019  Biso   1.000  C
  H63      1.0000 0.98787  0.44968  0.87170  Biso   1.000  H
  H64      1.0000 0.09334  0.44599  0.83480  Biso   1.000  H
  N37      1.0000 0.07006  0.51760  0.87128  Biso   1.000  N
  H65      1.0000 0.11270  0.43529  0.66989  Biso   1.000  H
  H66      1.0000 0.14366  0.43210  0.74132  Biso   1.000  H
  H67      1.0000 0.04446  0.40090  0.71378  Biso   1.000  H
  H68      1.0000 0.21191  0.51371  0.73890  Biso   1.000  H
  H69      1.0000 0.19776  0.56821  0.70721  Biso   1.000  H
  N38      1.0000 0.16847  0.56852  0.79631  Biso   1.000  N
  H70      1.0000 0.41730  0.76189  0.86690  Biso   1.000  H
  H71      1.0000 0.44297  0.70720  0.89589  Biso   1.000  H
  N39      1.0000 0.57296  0.75135  0.88773  Biso   1.000  N
  H72      1.0000 0.34688  0.78722  0.70288  Biso   1.000  H
  H73      1.0000 0.29025  0.74598  0.74421  Biso   1.000  H
  H74      1.0000 0.34841  0.79399  0.77548  Biso   1.000  H
  H75      1.0000 0.51981  0.83689  0.76979  Biso   1.000  H
  H76      1.0000 0.62168  0.83650  0.72958  Biso   1.000  H
  N40      1.0000 0.64966  0.81242  0.81541  Biso   1.000  N
  C69      1.0000 0.02465  0.53939  0.91923  Biso   1.000  C
  C70      1.0000 0.16927  0.54149  0.85670  Biso   1.000  C
  C71      1.0000 0.17785  0.62053  0.80521  Biso   1.000  C
  C72      1.0000 0.63114  0.72509  0.93158  Biso   1.000  C
  C73      1.0000 0.60940  0.80301  0.87790  Biso   1.000  C
  C74      1.0000 0.75957  0.81301  0.81569  Biso   1.000  C
  O19      1.0000 0.94180  0.52511  0.94276  Biso   1.000  O
  N41      1.0000 0.08287  0.58101  0.93904  Biso   1.000  N
  C75      1.0000 0.17605  0.58529  0.90628  Biso   1.000  C
  N42      1.0000 0.18335  0.63228  0.86611  Biso   1.000  N
  O20      1.0000 0.17986  0.65317  0.76285  Biso   1.000  O
  N43      1.0000 0.71300  0.75680  0.95455  Biso   1.000  N
  O21      1.0000 0.61418  0.68063  0.95124  Biso   1.000  O
  C76      1.0000 0.72014  0.80534  0.92110  Biso   1.000  C
  C77      1.0000 0.53454  0.84568  0.90772  Biso   1.000  C
  N44      1.0000 0.80105  0.80550  0.87492  Biso   1.000  N
  O22      1.0000 0.81187  0.81989  0.76989  Biso   1.000  O
  C78      1.0000 0.06324  0.60917  0.99640  Biso   1.000  C
  C79      1.0000 0.27668  0.57918  0.94598  Biso   1.000  C
  C80      1.0000 0.19555  0.68472  0.88978  Biso   1.000  C
  C81      1.0000 0.78409  0.74194  0.00735  Biso   1.000  C
  C82      1.0000 0.71728  0.85401  0.95488  Biso   1.000  C
  H77      1.0000 0.56337  0.87968  0.90041  Biso   1.000  H
  H78      1.0000 0.46356  0.84331  0.88890  Biso   1.000  H
  H79      1.0000 0.53184  0.83981  0.95171  Biso   1.000  H
  C83      1.0000 0.91189  0.81453  0.89151  Biso   1.000  C
  N45      1.0000 0.00959  0.65928  0.98759  Biso   1.000  N
  H80      1.0000 0.01995  0.58751  0.02240  Biso   1.000  H
  H81      1.0000 0.13157  0.61489  0.01858  Biso   1.000  H
  H82      1.0000 0.33774  0.58280  0.92058  Biso   1.000  H
  H83      1.0000 0.27928  0.60552  0.97780  Biso   1.000  H
  H84      1.0000 0.27765  0.54542  0.96508  Biso   1.000  H
  H85      1.0000 0.22507  0.70599  0.85740  Biso   1.000  H
  H86      1.0000 0.24794  0.68409  0.92450  Biso   1.000  H
  N46      1.0000 0.10100  0.70950  0.91010  Biso   1.000  N
  N47      1.0000 0.88307  0.71903  0.99160  Biso   1.000  N
  H87      1.0000 0.74623  0.71759  0.03298  Biso   1.000  H
  H88      1.0000 0.79945  0.77271  0.03242  Biso   1.000  H
  H89      1.0000 0.66248  0.85241  0.98489  Biso   1.000  H
  H90      1.0000 0.78568  0.86000  0.97589  Biso   1.000  H
  H91      1.0000 0.70174  0.88202  0.92622  Biso   1.000  H
  H92      1.0000 0.94566  0.82950  0.85581  Biso   1.000  H
  H93      1.0000 0.91604  0.84008  0.92468  Biso   1.000  H
  N48      1.0000 0.97359  0.76839  0.91192  Biso   1.000  N
  C84      1.0000 0.90659  0.66725  0.00082  Biso   1.000  C
  C85      1.0000 0.06685  0.70584  0.97398  Biso   1.000  C
  C86      1.0000 0.04720  0.74536  0.87468  Biso   1.000  C
  C87      1.0000 0.97991  0.74859  0.97631  Biso   1.000  C
  O23      1.0000 0.84267  0.63469  0.01876  Biso   1.000  O
  O24      1.0000 0.06086  0.75649  0.82142  Biso   1.000  O
  C88      1.0000 0.01149  0.79021  0.02291  Biso   1.000  C
  H94      1.0000 0.95913  0.81760  0.02100  Biso   1.000  H
  H95      1.0000 0.01493  0.77551  0.06410  Biso   1.000  H
  H96      1.0000 0.08060  0.80398  0.01350  Biso   1.000  H
  C89      1.0000 0.46535  0.34570  0.59230  Biso   1.000  C
  C90      1.0000 0.39057  0.30303  0.62208  Biso   1.000  C
  H97      1.0000 0.43660  0.37970  0.59962  Biso   1.000  H
  H98      1.0000 0.53640  0.34329  0.61108  Biso   1.000  H
  H99      1.0000 0.46805  0.33979  0.54831  Biso   1.000  H
  C91      1.0000 0.27982  0.30533  0.57888  Biso   1.000  C
  N49      1.0000 0.42700  0.25137  0.61229  Biso   1.000  N
  N50      1.0000 0.35030  0.31241  0.68461  Biso   1.000  N
  N51      1.0000 0.28696  0.25682  0.54543  Biso   1.000  N
  N52      1.0000 0.19891  0.30548  0.62506  Biso   1.000  N
  C92      1.0000 0.28269  0.35399  0.54510  Biso   1.000  C
  C93      1.0000 0.36875  0.22507  0.56844  Biso   1.000  C
  C94      1.0000 0.53279  0.23289  0.63340  Biso   1.000  C
  C95      1.0000 0.24039  0.31299  0.68429  Biso   1.000  C
  C96      1.0000 0.41675  0.31700  0.73978  Biso   1.000  C
  C97      1.0000 0.21587  0.24192  0.49263  Biso   1.000  C
  C98      1.0000 0.08808  0.31451  0.60852  Biso   1.000  C
  H100     1.0000 0.33748  0.35239  0.51509  Biso   1.000  H
  H101     1.0000 0.21428  0.36002  0.52408  Biso   1.000  H
  H102     1.0000 0.29814  0.38200  0.57380  Biso   1.000  H
  O25      1.0000 0.38578  0.18065  0.54873  Biso   1.000  O
  H103     1.0000 0.58267  0.26191  0.63312  Biso   1.000  H
  H104     1.0000 0.55700  0.20718  0.60409  Biso   1.000  H
  N53      1.0000 0.53585  0.21029  0.69496  Biso   1.000  N
  O26      1.0000 0.18809  0.31987  0.73009  Biso   1.000  O
  H105     1.0000 0.48015  0.33691  0.73018  Biso   1.000  H
  H106     1.0000 0.37828  0.33648  0.77040  Biso   1.000  H
  N54      1.0000 0.45090  0.26736  0.76742  Biso   1.000  N
  H107     1.0000 0.25365  0.21761  0.46700  Biso   1.000  H
  H108     1.0000 0.20052  0.27269  0.46761  Biso   1.000  H
  N55      1.0000 0.11690  0.21905  0.50843  Biso   1.000  N
  N56      1.0000 0.02637  0.26841  0.58806  Biso   1.000  N
  H109     1.0000 0.05431  0.32948  0.64421  Biso   1.000  H
  H110     1.0000 0.08384  0.34010  0.57529  Biso   1.000  H
  C99      1.0000 0.54175  0.15688  0.70330  Biso   1.000  C
  C100     1.0000 0.54564  0.23811  0.75190  Biso   1.000  C
  C101     1.0000 0.39844  0.24744  0.81541  Biso   1.000  C
  C102     1.0000 0.09338  0.16727  0.49920  Biso   1.000  C
  C103     1.0000 0.02006  0.24857  0.52371  Biso   1.000  C
  C104     1.0000 0.95276  0.24534  0.62529  Biso   1.000  C
  N57      1.0000 0.54991  0.14716  0.76555  Biso   1.000  N
  O27      1.0000 0.54128  0.12436  0.66103  Biso   1.000  O
  C105     1.0000 0.54996  0.19411  0.80199  Biso   1.000  C
  C106     1.0000 0.64970  0.26919  0.75791  Biso   1.000  C
  N58      1.0000 0.45221  0.20294  0.83480  Biso   1.000  N
  O28      1.0000 0.32204  0.26678  0.84165  Biso   1.000  O
  O29      1.0000 0.15730  0.13471  0.48126  Biso   1.000  O
  N59      1.0000 0.99037  0.15926  0.51239  Biso   1.000  N
  C107     1.0000 0.93311  0.20582  0.52599  Biso   1.000  C
  C108     1.0000 0.98848  0.29019  0.47711  Biso   1.000  C
  N60      1.0000 0.89896  0.20951  0.58988  Biso   1.000  N
  O30      1.0000 0.93911  0.25647  0.67860  Biso   1.000  O
  C109     1.0000 0.56787  0.09849  0.79002  Biso   1.000  C
  H111     1.0000 0.65308  0.28720  0.79710  Biso   1.000  H
  H112     1.0000 0.70971  0.24600  0.75581  Biso   1.000  H
  H113     1.0000 0.65155  0.29401  0.72450  Biso   1.000  H
  C110     1.0000 0.42555  0.17591  0.89239  Biso   1.000  C
  C111     1.0000 0.93672  0.10919  0.50358  Biso   1.000  C
  H114     1.0000 0.04075  0.31762  0.47898  Biso   1.000  H
  H115     1.0000 0.98496  0.27549  0.43592  Biso   1.000  H
  H116     1.0000 0.91937  0.30400  0.48648  Biso   1.000  H
  C112     1.0000 0.80441  0.18470  0.61020  Biso   1.000  C
  H117     1.0000 0.59874  0.07659  0.75861  Biso   1.000  H
  H118     1.0000 0.61978  0.10110  0.82478  Biso   1.000  H
  N61      1.0000 0.46995  0.07344  0.81154  Biso   1.000  N
  H119     1.0000 0.37877  0.19820  0.91560  Biso   1.000  H
  H120     1.0000 0.49129  0.17108  0.91760  Biso   1.000  H
  N62      1.0000 0.37465  0.12646  0.88400  Biso   1.000  N
  H121     1.0000 0.98001  0.08749  0.47758  Biso   1.000  H
  H122     1.0000 0.86839  0.11491  0.48140  Biso   1.000  H
  N63      1.0000 0.91710  0.08103  0.56094  Biso   1.000  N
  H123     1.0000 0.77489  0.20601  0.64258  Biso   1.000  H
  H124     1.0000 0.75194  0.18411  0.57548  Biso   1.000  H
  N64      1.0000 0.81662  0.13230  0.63387  Biso   1.000  N
  C113     1.0000 0.41258  0.03524  0.77669  Biso   1.000  C
  C114     1.0000 0.43387  0.07780  0.87538  Biso   1.000  C
  C115     1.0000 0.26928  0.11954  0.89323  Biso   1.000  C
  C116     1.0000 0.97531  0.03937  0.58075  Biso   1.000  C
  C117     1.0000 0.82392  0.08531  0.59370  Biso   1.000  C
  C118     1.0000 0.82212  0.12055  0.69482  Biso   1.000  C
  N65      1.0000 0.34165  0.01474  0.81546  Biso   1.000  N
  O31      1.0000 0.42696  0.02427  0.72334  Biso   1.000  O
  C119     1.0000 0.34278  0.03727  0.87799  Biso   1.000  C
  C120     1.0000 0.52665  0.06862  0.92301  Biso   1.000  C
  N66      1.0000 0.24859  0.06769  0.89001  Biso   1.000  N
  O32      1.0000 0.20414  0.15377  0.90320  Biso   1.000  O
  O33      1.0000 0.05816  0.02513  0.55726  Biso   1.000  O
  N67      1.0000 0.92990  0.01762  0.62870  Biso   1.000  N
  C121     1.0000 0.83069  0.04151  0.64328  Biso   1.000  C
  C122     1.0000 0.72329  0.07920  0.55400  Biso   1.000  C
  N68      1.0000 0.83150  0.06850  0.70367  Biso   1.000  N
  O34      1.0000 0.82011  0.15319  0.73717  Biso   1.000  O
  C123     1.0000 0.28139  0.96826  0.79729  Biso   1.000  C
  C124     1.0000 0.37509  0.99829  0.93032  Biso   1.000  C
  H125     1.0000 0.50106  0.07169  0.96429  Biso   1.000  H
  H126     1.0000 0.55561  0.03439  0.91741  Biso   1.000  H
  H127     1.0000 0.58181  0.09410  0.91709  Biso   1.000  H
  C125     1.0000 0.14747  0.04617  0.90493  Biso   1.000  C
  C126     1.0000 0.96806  0.96783  0.65740  Biso   1.000  C
  H128     1.0000 0.66215  0.08282  0.57940  Biso   1.000  H
  H129     1.0000 0.72068  0.10550  0.52222  Biso   1.000  H
  H130     1.0000 0.72232  0.04540  0.53489  Biso   1.000  H
  C127     1.0000 0.83348  0.04435  0.76360  Biso   1.000  C
  N69      1.0000 0.17386  0.97627  0.77655  Biso   1.000  N
  H131     1.0000 0.28185  0.94480  0.83261  Biso   1.000  H
  H132     1.0000 0.31857  0.95099  0.76429  Biso   1.000  H
  H133     1.0000 0.38986  0.01688  0.96839  Biso   1.000  H
  H134     1.0000 0.43805  0.97962  0.91900  Biso   1.000  H
  H135     1.0000 0.31734  0.97421  0.93582  Biso   1.000  H
  N70      1.0000 0.08276  0.03229  0.85050  Biso   1.000  N
  H136     1.0000 0.15958  0.01548  0.93051  Biso   1.000  H
  H137     1.0000 0.10887  0.07130  0.92920  Biso   1.000  H
  H138     1.0000 0.90662  0.94601  0.66518  Biso   1.000  H
  H139     1.0000 0.01210  0.94970  0.62832  Biso   1.000  H
  N71      1.0000 0.02939  0.97534  0.71499  Biso   1.000  N
  H140     1.0000 0.78806  0.01369  0.76108  Biso   1.000  H
  H141     1.0000 0.80221  0.06819  0.79281  Biso   1.000  H
  N72      1.0000 0.93598  0.02937  0.78801  Biso   1.000  N
  C128     1.0000 0.13704  0.97086  0.71728  Biso   1.000  C
  C129     1.0000 0.08726  0.97966  0.82049  Biso   1.000  C
  C130     1.0000 0.99325  0.05851  0.83158  Biso   1.000  C
  C131     1.0000 0.98679  0.97857  0.77739  Biso   1.000  C
  O35      1.0000 0.19189  0.96363  0.67240  Biso   1.000  O
  O36      1.0000 0.96361  0.10172  0.85111  Biso   1.000  O
  C132     1.0000 0.91488  0.93251  0.78918  Biso   1.000  C
  H142     1.0000 0.88726  0.93531  0.83009  Biso   1.000  H
  H143     1.0000 0.85631  0.93208  0.75870  Biso   1.000  H
  H144     1.0000 0.95550  0.90088  0.78620  Biso   1.000  H
  C133     1.0000 0.53462  0.65430  0.40768  Biso   1.000  C
  C134     1.0000 0.60941  0.69697  0.37791  Biso   1.000  C
  H145     1.0000 0.56338  0.62030  0.40041  Biso   1.000  H
  H146     1.0000 0.46357  0.65671  0.38890  Biso   1.000  H
  H147     1.0000 0.53185  0.66021  0.45172  Biso   1.000  H
  C135     1.0000 0.72016  0.69467  0.42110  Biso   1.000  C
  N73      1.0000 0.57298  0.74863  0.38774  Biso   1.000  N
  N74      1.0000 0.64968  0.68759  0.31542  Biso   1.000  N
  N75      1.0000 0.71301  0.74318  0.45456  Biso   1.000  N
  N76      1.0000 0.80106  0.69452  0.37492  Biso   1.000  N
  C136     1.0000 0.71729  0.64601  0.45489  Biso   1.000  C
  C137     1.0000 0.63115  0.77493  0.43159  Biso   1.000  C
  C138     1.0000 0.46718  0.76711  0.36658  Biso   1.000  C
  C139     1.0000 0.75959  0.68701  0.31570  Biso   1.000  C
  C140     1.0000 0.58322  0.68300  0.26020  Biso   1.000  C
  C141     1.0000 0.78411  0.75808  0.50736  Biso   1.000  C
  C142     1.0000 0.91190  0.68549  0.39151  Biso   1.000  C
  H148     1.0000 0.66249  0.64761  0.48490  Biso   1.000  H
  H149     1.0000 0.78570  0.63998  0.47590  Biso   1.000  H
  H150     1.0000 0.70175  0.61800  0.42618  Biso   1.000  H
  O37      1.0000 0.61420  0.81935  0.45125  Biso   1.000  O
  H151     1.0000 0.41731  0.73809  0.36691  Biso   1.000  H
  H152     1.0000 0.44298  0.79282  0.39589  Biso   1.000  H
  N77      1.0000 0.46412  0.78971  0.30503  Biso   1.000  N
  O38      1.0000 0.81188  0.68013  0.26989  Biso   1.000  O
  H153     1.0000 0.51983  0.66309  0.26980  Biso   1.000  H
  H154     1.0000 0.62169  0.66352  0.22959  Biso   1.000  H
  N78      1.0000 0.54908  0.73264  0.23262  Biso   1.000  N
  H155     1.0000 0.74632  0.78239  0.53298  Biso   1.000  H
  H156     1.0000 0.79946  0.72731  0.53238  Biso   1.000  H
  N79      1.0000 0.88308  0.78095  0.49161  Biso   1.000  N
  H157     1.0000 0.94567  0.67052  0.35582  Biso   1.000  H
  H158     1.0000 0.91605  0.65990  0.42469  Biso   1.000  H
  N80      1.0000 0.97361  0.73159  0.41192  Biso   1.000  N
  C143     1.0000 0.45823  0.84312  0.29669  Biso   1.000  C
  C144     1.0000 0.45426  0.76189  0.24809  Biso   1.000  C
  C145     1.0000 0.60146  0.75256  0.18462  Biso   1.000  C
  C146     1.0000 0.90660  0.83273  0.50083  Biso   1.000  C
  C147     1.0000 0.97992  0.75143  0.47632  Biso   1.000  C
  C148     1.0000 0.04721  0.75466  0.37469  Biso   1.000  C
  N81      1.0000 0.45007  0.85284  0.23443  Biso   1.000  N
  O39      1.0000 0.45870  0.87564  0.33895  Biso   1.000  O
  C149     1.0000 0.45002  0.80589  0.19799  Biso   1.000  C
  C150     1.0000 0.35027  0.73081  0.24212  Biso   1.000  C
  N82      1.0000 0.54776  0.79706  0.16519  Biso   1.000  N
  O40      1.0000 0.67786  0.73322  0.15834  Biso   1.000  O
  O41      1.0000 0.84268  0.86529  0.51877  Biso   1.000  O
  N83      1.0000 0.00960  0.84074  0.48760  Biso   1.000  N
  C151     1.0000 0.06686  0.79418  0.47399  Biso   1.000  C
  C152     1.0000 0.01150  0.70981  0.52292  Biso   1.000  C
  N84      1.0000 0.10101  0.79049  0.41011  Biso   1.000  N
  O42      1.0000 0.06087  0.74353  0.32143  Biso   1.000  O
  C153     1.0000 0.43211  0.90151  0.21002  Biso   1.000  C
  H159     1.0000 0.34689  0.71280  0.20289  Biso   1.000  H
  H160     1.0000 0.29027  0.75400  0.24422  Biso   1.000  H
  H161     1.0000 0.34842  0.70599  0.27549  Biso   1.000  H
  C154     1.0000 0.57443  0.82409  0.10759  Biso   1.000  C
  C155     1.0000 0.06326  0.89081  0.49640  Biso   1.000  C
  H162     1.0000 0.95915  0.68238  0.52101  Biso   1.000  H
  H163     1.0000 0.01502  0.72451  0.56411  Biso   1.000  H
  H164     1.0000 0.08061  0.69600  0.51351  Biso   1.000  H
  C156     1.0000 0.19557  0.81530  0.38979  Biso   1.000  C
  H165     1.0000 0.40116  0.92341  0.24142  Biso   1.000  H
  H166     1.0000 0.38020  0.89890  0.17521  Biso   1.000  H
  N85      1.0000 0.53003  0.92656  0.18849  Biso   1.000  N
  H167     1.0000 0.62121  0.80180  0.08439  Biso   1.000  H
  H168     1.0000 0.50869  0.82892  0.08238  Biso   1.000  H
  N86      1.0000 0.62532  0.87354  0.11603  Biso   1.000  N
  H169     1.0000 0.01997  0.91251  0.52241  Biso   1.000  H
  H170     1.0000 0.13159  0.88509  0.51859  Biso   1.000  H
  N87      1.0000 0.08288  0.91897  0.43904  Biso   1.000  N
  H171     1.0000 0.22508  0.79399  0.35740  Biso   1.000  H
  H172     1.0000 0.24795  0.81589  0.42450  Biso   1.000  H
  N88      1.0000 0.18336  0.86770  0.36612  Biso   1.000  N
  C157     1.0000 0.58739  0.96476  0.22334  Biso   1.000  C
  C158     1.0000 0.56610  0.92220  0.12460  Biso   1.000  C
  C159     1.0000 0.73070  0.88046  0.10676  Biso   1.000  C
  C160     1.0000 0.02467  0.96063  0.41924  Biso   1.000  C
  C161     1.0000 0.17606  0.91469  0.40628  Biso   1.000  C
  C162     1.0000 0.17786  0.87945  0.30521  Biso   1.000  C
  N89      1.0000 0.65832  0.98526  0.18453  Biso   1.000  N
  O43      1.0000 0.57302  0.97573  0.27665  Biso   1.000  O
  C163     1.0000 0.65720  0.96273  0.12199  Biso   1.000  C
  C164     1.0000 0.47333  0.93138  0.07698  Biso   1.000  C
  N90      1.0000 0.75138  0.93231  0.10997  Biso   1.000  N
  O44      1.0000 0.79576  0.84623  0.09678  Biso   1.000  O
  O45      1.0000 0.94181  0.97487  0.44277  Biso   1.000  O
  N91      1.0000 0.07007  0.98238  0.37129  Biso   1.000  N
  C165     1.0000 0.16929  0.95849  0.35670  Biso   1.000  C
  C166     1.0000 0.27669  0.92080  0.44599  Biso   1.000  C
  N92      1.0000 0.16848  0.93150  0.29631  Biso   1.000  N
  O46      1.0000 0.17987  0.84681  0.26281  Biso   1.000  O
  C167     1.0000 0.71858  0.03174  0.20270  Biso   1.000  C
  C168     1.0000 0.62488  0.00171  0.06971  Biso   1.000  C
  H173     1.0000 0.49891  0.92831  0.03569  Biso   1.000  H
  H174     1.0000 0.44437  0.96561  0.08262  Biso   1.000  H
  H175     1.0000 0.41816  0.90590  0.08290  Biso   1.000  H
  C169     1.0000 0.85250  0.95383  0.09506  Biso   1.000  C
  C170     1.0000 0.03191  0.03217  0.34259  Biso   1.000  C
  H176     1.0000 0.33775  0.91718  0.42059  Biso   1.000  H
  H177     1.0000 0.27930  0.89450  0.47781  Biso   1.000  H
  H178     1.0000 0.27766  0.95460  0.46509  Biso   1.000  H
  C171     1.0000 0.16650  0.95565  0.23639  Biso   1.000  C
  H179     1.0000 0.71813  0.05520  0.16738  Biso   1.000  H
  H180     1.0000 0.68141  0.04901  0.23569  Biso   1.000  H
  N93      1.0000 0.82611  0.02373  0.22344  Biso   1.000  N
  H181     1.0000 0.61011  0.98312  0.03159  Biso   1.000  H
  H182     1.0000 0.56193  0.02038  0.08099  Biso   1.000  H
  H183     1.0000 0.68256  0.02579  0.06421  Biso   1.000  H
  H184     1.0000 0.84040  0.98452  0.06948  Biso   1.000  H
  H185     1.0000 0.89110  0.92870  0.07078  Biso   1.000  H
  N94      1.0000 0.91721  0.96771  0.14949  Biso   1.000  N
  H186     1.0000 0.98788  0.05030  0.37171  Biso   1.000  H
  N95      1.0000 0.97059  0.02466  0.28504  Biso   1.000  N
  H187     1.0000 0.09336  0.05399  0.33480  Biso   1.000  H
  H188     1.0000 0.21192  0.98631  0.23891  Biso   1.000  H
  H189     1.0000 0.19777  0.93181  0.20722  Biso   1.000  H
  N96      1.0000 0.06400  0.97063  0.21197  Biso   1.000  N
  C172     1.0000 0.86286  0.02914  0.28271  Biso   1.000  C
  C173     1.0000 0.91271  0.02034  0.17954  Biso   1.000  C
  C174     1.0000 0.00673  0.94149  0.16845  Biso   1.000  C
  C175     1.0000 0.01319  0.02143  0.22260  Biso   1.000  C
  O47      1.0000 0.80809  0.03637  0.32763  Biso   1.000  O
  O48      1.0000 0.03636  0.89828  0.14888  Biso   1.000  O
  C176     1.0000 0.08509  0.06749  0.21081  Biso   1.000  C
  H190     1.0000 0.11271  0.06469  0.16989  Biso   1.000  H
  H191     1.0000 0.14367  0.06792  0.24128  Biso   1.000  H
  H192     1.0000 0.04448  0.09912  0.21379  Biso   1.000  H
  Ne1      1.0000 0.19065  0.35543  0.19893  Biso   1.000  Ne
  He1      1.0000 0.04938  0.28939  0.30314  Biso   1.000  He
  He2      1.0000 0.28107  0.42217  0.11125  Biso   1.000  He
  Ar1      1.0000 0.19073  0.35621  0.19984  Biso   1.000  Ar
  Ne2      1.0000 0.19063  0.14457  0.69893  Biso   1.000  Ne
  He3      1.0000 0.09196  0.21845  0.79208  Biso   1.000  He
  He4      1.0000 0.28367  0.07642  0.60925  Biso   1.000  He
  Ar2      1.0000 0.18704  0.14282  0.70171  Biso   1.000  Ar
  Ne3      1.0000 0.80932  0.64457  0.80107  Biso   1.000  Ne
  He5      1.0000 0.71685  0.57670  0.89035  Biso   1.000  He
  He6      1.0000 0.90839  0.71865  0.70767  Biso   1.000  He
  Ar3      1.0000 0.81290  0.64283  0.79830  Biso   1.000  Ar
  Ne4      1.0000 0.80934  0.85543  0.30107  Biso   1.000  Ne
  He7      1.0000 0.71649  0.92349  0.39061  Biso   1.000  He
  He8      1.0000 0.93373  0.79923  0.20996  Biso   1.000  He
  Ar4      1.0000 0.80922  0.85619  0.30019  Biso   1.000  Ar
