data_image0
_cell_length_a       14.174
_cell_length_b       20.234
_cell_length_c       14.845
_cell_angle_alpha    90
_cell_angle_beta     114.64
_cell_angle_gamma    90

_symmetry_space_group_name_H-M    "P 1"
_symmetry_int_tables_number       1

loop_
  _symmetry_equiv_pos_as_xyz
  'x, y, z'

loop_
  _atom_site_label
  _atom_site_occupancy
  _atom_site_fract_x
  _atom_site_fract_y
  _atom_site_fract_z
  _atom_site_thermal_displace_type
  _atom_site_B_iso_or_equiv
  _atom_site_type_symbol
  C1       1.0000 0.41262  0.35737  0.25472  Biso   1.000  C
  H1       1.0000 0.45811  0.31912  0.27228  Biso   1.000  H
  N1       1.0000 0.47730  0.41672  0.28733  Biso   1.000  N
  N2       1.0000 0.34571  0.35302  0.15222  Biso   1.000  N
  H2       1.0000 0.37042  0.35450  0.29185  Biso   1.000  H
  H3       1.0000 0.37038  0.35450  0.29177  Biso   1.000  H
  C2       1.0000 0.57886  0.41989  0.30712  Biso   1.000  C
  C3       1.0000 0.44024  0.47445  0.31571  Biso   1.000  C
  C4       1.0000 0.37371  0.32040  0.08612  Biso   1.000  C
  C5       1.0000 0.24944  0.37783  0.11013  Biso   1.000  C
  N3       1.0000 0.61602  0.48206  0.34261  Biso   1.000  N
  O1       1.0000 0.63291  0.37481  0.29355  Biso   1.000  O
  O2       1.0000 0.63298  0.37481  0.29355  Biso   1.000  O
  C6       1.0000 0.54072  0.51868  0.36099  Biso   1.000  C
  H4       1.0000 0.41573  0.46382  0.36670  Biso   1.000  H
  N4       1.0000 0.36621  0.51389  0.24101  Biso   1.000  N
  O3       1.0000 0.45293  0.28927  0.10338  Biso   1.000  O
  N5       1.0000 0.29099  0.32623  0.99296  Biso   1.000  N
  H5       1.0000 0.20523  0.36078  0.14088  Biso   1.000  H
  C7       1.0000 0.20738  0.35905  0.99830  Biso   1.000  C
  N6       1.0000 0.24498  0.45473  0.10168  Biso   1.000  N
  C8       1.0000 0.72183  0.49946  0.37811  Biso   1.000  C
  H6       1.0000 0.56197  0.52802  0.43162  Biso   1.000  H
  N7       1.0000 0.50436  0.57996  0.29726  Biso   1.000  N
  C9       1.0000 0.40232  0.57621  0.23760  Biso   1.000  C
  C10      1.0000 0.26225  0.49778  0.18891  Biso   1.000  C
  C11      1.0000 0.29090  0.28729  0.91166  Biso   1.000  C
  N8       1.0000 0.17709  0.41776  0.94427  Biso   1.000  N
  H7       1.0000 0.14795  0.32910  0.98029  Biso   1.000  H
  C12      1.0000 0.19730  0.47460  0.01060  Biso   1.000  C
  H8       1.0000 0.76334  0.45962  0.38901  Biso   1.000  H
  H9       1.0000 0.74306  0.52209  0.44111  Biso   1.000  H
  N9       1.0000 0.74173  0.54354  0.30608  Biso   1.000  N
  C13      1.0000 0.56761  0.63962  0.32238  Biso   1.000  C
  O4       1.0000 0.35142  0.62202  0.18372  Biso   1.000  O
  H10      1.0000 0.23785  0.47509  0.23271  Biso   1.000  H
  H11      1.0000 0.22205  0.53801  0.16630  Biso   1.000  H
  H12      1.0000 0.34941  0.25709  0.93626  Biso   1.000  H
  H13      1.0000 0.22791  0.26110  0.88439  Biso   1.000  H
  N10      1.0000 0.29739  0.32885  0.83184  Biso   1.000  N
  C14      1.0000 0.11919  0.42443  0.84059  Biso   1.000  C
  O5       1.0000 0.17073  0.53123  0.97947  Biso   1.000  O
  C15      1.0000 0.79693  0.52654  0.25798  Biso   1.000  C
  C16      1.0000 0.74104  0.61545  0.31564  Biso   1.000  C
  C17      1.0000 0.74101  0.61545  0.31556  Biso   1.000  C
  H14      1.0000 0.52271  0.67802  0.30052  Biso   1.000  H
  H15      1.0000 0.60572  0.64238  0.39383  Biso   1.000  H
  N11      1.0000 0.63923  0.64016  0.27732  Biso   1.000  N
  C18      1.0000 0.38096  0.32159  0.80946  Biso   1.000  C
  C19      1.0000 0.21425  0.36374  0.75373  Biso   1.000  C
  H16      1.0000 0.06849  0.38910  0.81754  Biso   1.000  H
  H17      1.0000 0.08139  0.46590  0.82754  Biso   1.000  H
  N12      1.0000 0.18049  0.42300  0.78434  Biso   1.000  N
  O6       1.0000 0.82817  0.46941  0.25376  Biso   1.000  O
  N13      1.0000 0.81958  0.57700  0.21566  Biso   1.000  N
  H18      1.0000 0.78254  0.63042  0.38352  Biso   1.000  H
  C20      1.0000 0.78582  0.63626  0.24627  Biso   1.000  C
  C21      1.0000 0.61914  0.67841  0.19061  Biso   1.000  C
  N14      1.0000 0.36088  0.35984  0.72275  Biso   1.000  N
  O7       1.0000 0.45869  0.29361  0.85578  Biso   1.000  O
  H19      1.0000 0.15517  0.33409  0.72038  Biso   1.000  H
  C22      1.0000 0.25906  0.38455  0.68444  Biso   1.000  C
  C23      1.0000 0.20314  0.47346  0.74202  Biso   1.000  C
  C24      1.0000 0.88091  0.57557  0.15949  Biso   1.000  C
  H20      1.0000 0.84493  0.66591  0.27969  Biso   1.000  H
  N15      1.0000 0.70268  0.67115  0.16816  Biso   1.000  N
  O8       1.0000 0.54142  0.70639  0.14429  Biso   1.000  O
  O9       1.0000 0.54149  0.70639  0.14429  Biso   1.000  O
  C25      1.0000 0.43246  0.36038  0.67762  Biso   1.000  C
  H21      1.0000 0.21757  0.36958  0.61655  Biso   1.000  H
  N16      1.0000 0.25837  0.45646  0.69400  Biso   1.000  N
  N17      1.0000 0.25834  0.45646  0.69392  Biso   1.000  N
  O10      1.0000 0.17193  0.53059  0.74632  Biso   1.000  O
  H22      1.0000 0.91871  0.53410  0.17253  Biso   1.000  H
  N18      1.0000 0.82301  0.58224  0.05581  Biso   1.000  N
  H23      1.0000 0.93158  0.61090  0.18246  Biso   1.000  H
  C26      1.0000 0.70920  0.71271  0.08841  Biso   1.000  C
  N19      1.0000 0.49575  0.42004  0.70282  Biso   1.000  N
  H24      1.0000 0.47739  0.32198  0.69955  Biso   1.000  H
  H25      1.0000 0.39439  0.35762  0.60625  Biso   1.000  H
  C27      1.0000 0.27828  0.50054  0.62196  Biso   1.000  C
  C28      1.0000 0.79272  0.64095  0.00178  Biso   1.000  C
  C29      1.0000 0.80280  0.52540  0.98948  Biso   1.000  C
  H26      1.0000 0.65069  0.74291  0.06381  Biso   1.000  H
  H27      1.0000 0.77219  0.73890  0.11569  Biso   1.000  H
  N20      1.0000 0.70912  0.67377  0.00711  Biso   1.000  N
  C30      1.0000 0.59778  0.42379  0.76247  Biso   1.000  C
  C31      1.0000 0.45938  0.48132  0.63908  Biso   1.000  C
  N21      1.0000 0.38408  0.51794  0.65746  Biso   1.000  N
  H28      1.0000 0.23676  0.54038  0.61107  Biso   1.000  H
  H29      1.0000 0.25705  0.47791  0.55897  Biso   1.000  H
  H30      1.0000 0.85223  0.67090  0.01979  Biso   1.000  H
  C32      1.0000 0.75066  0.62217  0.88995  Biso   1.000  C
  N22      1.0000 0.75509  0.54527  0.89832  Biso   1.000  N
  O11      1.0000 0.82944  0.46877  0.02060  Biso   1.000  O
  C33      1.0000 0.62639  0.67960  0.91396  Biso   1.000  C
  N23      1.0000 0.63390  0.48611  0.75907  Biso   1.000  N
  O12      1.0000 0.64868  0.37798  0.81635  Biso   1.000  O
  H31      1.0000 0.43813  0.47198  0.56845  Biso   1.000  H
  C34      1.0000 0.55986  0.52555  0.68436  Biso   1.000  C
  C35      1.0000 0.42124  0.58011  0.69296  Biso   1.000  C
  H32      1.0000 0.79487  0.63922  0.85919  Biso   1.000  H
  N24      1.0000 0.65439  0.64698  0.84785  Biso   1.000  N
  C36      1.0000 0.73792  0.50222  0.81117  Biso   1.000  C
  O13      1.0000 0.54717  0.71073  0.89669  Biso   1.000  O
  H33      1.0000 0.58437  0.53618  0.63337  Biso   1.000  H
  N25      1.0000 0.52280  0.58328  0.71275  Biso   1.000  N
  O14      1.0000 0.36720  0.62519  0.70652  Biso   1.000  O
  C37      1.0000 0.58748  0.64263  0.74535  Biso   1.000  C
  H34      1.0000 0.76225  0.52491  0.76737  Biso   1.000  H
  H35      1.0000 0.77806  0.46199  0.83377  Biso   1.000  H
  H36      1.0000 0.62969  0.64550  0.70823  Biso   1.000  H
  H37      1.0000 0.54196  0.68088  0.72772  Biso   1.000  H
  O15      1.0000 0.45863  0.20639  0.35573  Biso   1.000  O
  C38      1.0000 0.38091  0.17841  0.30941  Biso   1.000  C
  N26      1.0000 0.29734  0.17115  0.33179  Biso   1.000  N
  N27      1.0000 0.36083  0.14016  0.22270  Biso   1.000  N
  C39      1.0000 0.21420  0.13626  0.25368  Biso   1.000  C
  C40      1.0000 0.29085  0.21271  0.41161  Biso   1.000  C
  C41      1.0000 0.25901  0.11545  0.18439  Biso   1.000  C
  C42      1.0000 0.43244  0.13962  0.17764  Biso   1.000  C
  H38      1.0000 0.15512  0.16591  0.22033  Biso   1.000  H
  N28      1.0000 0.18044  0.07700  0.28429  Biso   1.000  N
  H39      1.0000 0.34936  0.24291  0.43622  Biso   1.000  H
  H40      1.0000 0.22786  0.23890  0.38434  Biso   1.000  H
  N29      1.0000 0.29093  0.17377  0.49291  Biso   1.000  N
  H41      1.0000 0.21751  0.13042  0.11650  Biso   1.000  H
  N30      1.0000 0.25828  0.04354  0.19387  Biso   1.000  N
  H42      1.0000 0.47734  0.17802  0.19951  Biso   1.000  H
  H43      1.0000 0.39433  0.14238  0.10620  Biso   1.000  H
  N31      1.0000 0.49569  0.07996  0.20277  Biso   1.000  N
  C43      1.0000 0.20312  0.02654  0.24205  Biso   1.000  C
  C44      1.0000 0.11914  0.07557  0.34054  Biso   1.000  C
  C45      1.0000 0.37376  0.17960  0.58614  Biso   1.000  C
  C46      1.0000 0.20733  0.14095  0.49825  Biso   1.000  C
  C47      1.0000 0.27822  0.99946  0.12191  Biso   1.000  C
  C48      1.0000 0.59773  0.07621  0.26243  Biso   1.000  C
  C49      1.0000 0.45933  0.01868  0.13903  Biso   1.000  C
  O16      1.0000 0.17188  0.96941  0.24627  Biso   1.000  O
  H44      1.0000 0.06843  0.11090  0.31749  Biso   1.000  H
  H45      1.0000 0.08134  0.03410  0.32750  Biso   1.000  H
  N32      1.0000 0.17704  0.08224  0.44422  Biso   1.000  N
  N33      1.0000 0.34576  0.14698  0.65225  Biso   1.000  N
  O17      1.0000 0.45298  0.21073  0.60341  Biso   1.000  O
  C50      1.0000 0.24949  0.12217  0.61016  Biso   1.000  C
  H46      1.0000 0.14782  0.17090  0.48024  Biso   1.000  H
  H47      1.0000 0.25700  0.02209  0.05892  Biso   1.000  H
  H48      1.0000 0.23671  0.95962  0.11102  Biso   1.000  H
  N34      1.0000 0.38403  0.98206  0.15741  Biso   1.000  N
  N35      1.0000 0.63384  0.01389  0.25902  Biso   1.000  N
  O18      1.0000 0.64863  0.12202  0.31631  Biso   1.000  O
  H49      1.0000 0.43808  0.02802  0.06840  Biso   1.000  H
  C51      1.0000 0.55981  0.97445  0.18431  Biso   1.000  C
  C52      1.0000 0.19735  0.02540  0.51062  Biso   1.000  C
  C53      1.0000 0.41267  0.14263  0.75475  Biso   1.000  C
  H50      1.0000 0.20528  0.13922  0.64091  Biso   1.000  H
  N36      1.0000 0.24506  0.04527  0.60178  Biso   1.000  N
  C54      1.0000 0.42119  0.91989  0.19291  Biso   1.000  C
  C55      1.0000 0.73787  0.99778  0.31112  Biso   1.000  C
  H51      1.0000 0.58432  0.96382  0.13333  Biso   1.000  H
  N37      1.0000 0.52275  0.91672  0.21270  Biso   1.000  N
  O19      1.0000 0.17068  0.96877  0.47942  Biso   1.000  O
  H52      1.0000 0.37043  0.14550  0.79180  Biso   1.000  H
  H53      1.0000 0.45816  0.18088  0.77231  Biso   1.000  H
  N38      1.0000 0.47735  0.08328  0.78735  Biso   1.000  N
  C56      1.0000 0.26230  0.00222  0.68893  Biso   1.000  C
  O20      1.0000 0.36714  0.87481  0.20647  Biso   1.000  O
  H54      1.0000 0.77800  0.03801  0.33372  Biso   1.000  H
  H55      1.0000 0.76220  0.97509  0.26732  Biso   1.000  H
  N39      1.0000 0.75504  0.95473  0.39827  Biso   1.000  N
  C57      1.0000 0.58743  0.85737  0.24531  Biso   1.000  C
  C58      1.0000 0.57891  0.08011  0.80714  Biso   1.000  C
  C59      1.0000 0.44029  0.02555  0.81574  Biso   1.000  C
  H56      1.0000 0.23790  0.02491  0.73273  Biso   1.000  H
  H57      1.0000 0.22210  0.96199  0.66633  Biso   1.000  H
  N40      1.0000 0.36626  0.98611  0.74103  Biso   1.000  N
  C60      1.0000 0.80275  0.97460  0.48943  Biso   1.000  C
  C61      1.0000 0.75061  0.87783  0.38990  Biso   1.000  C
  H58      1.0000 0.62963  0.85450  0.20818  Biso   1.000  H
  H59      1.0000 0.54194  0.81912  0.22774  Biso   1.000  H
  N41      1.0000 0.65434  0.85302  0.34780  Biso   1.000  N
  N42      1.0000 0.61607  0.01794  0.84264  Biso   1.000  N
  O21      1.0000 0.63296  0.12519  0.79358  Biso   1.000  O
  H60      1.0000 0.41578  0.03618  0.86673  Biso   1.000  H
  C62      1.0000 0.54078  0.98132  0.86102  Biso   1.000  C
  C63      1.0000 0.40237  0.92379  0.73763  Biso   1.000  C
  O22      1.0000 0.82942  0.03123  0.52063  Biso   1.000  O
  N43      1.0000 0.82306  0.91776  0.55583  Biso   1.000  N
  H61      1.0000 0.79482  0.86078  0.35914  Biso   1.000  H
  C64      1.0000 0.79277  0.85905  0.50180  Biso   1.000  C
  C65      1.0000 0.62634  0.82040  0.41391  Biso   1.000  C
  C66      1.0000 0.72188  0.00054  0.87814  Biso   1.000  C
  H62      1.0000 0.56202  0.97198  0.93165  Biso   1.000  H
  N44      1.0000 0.50441  0.92004  0.79729  Biso   1.000  N
  O23      1.0000 0.35147  0.87798  0.68375  Biso   1.000  O
  C67      1.0000 0.88096  0.92443  0.65951  Biso   1.000  C
  H63      1.0000 0.85228  0.82910  0.51981  Biso   1.000  H
  N45      1.0000 0.70917  0.82623  0.50714  Biso   1.000  N
  O24      1.0000 0.54712  0.78927  0.39664  Biso   1.000  O
  H64      1.0000 0.76339  0.04038  0.88903  Biso   1.000  H
  H65      1.0000 0.74311  0.97791  0.94113  Biso   1.000  H
  N46      1.0000 0.74179  0.95646  0.80610  Biso   1.000  N
  C68      1.0000 0.56766  0.86038  0.82241  Biso   1.000  C
  H66      1.0000 0.93167  0.88910  0.68256  Biso   1.000  H
  H67      1.0000 0.91876  0.96590  0.67256  Biso   1.000  H
  N47      1.0000 0.81967  0.92300  0.71576  Biso   1.000  N
  C69      1.0000 0.70925  0.78729  0.58844  Biso   1.000  C
  C70      1.0000 0.79698  0.97346  0.75801  Biso   1.000  C
  C71      1.0000 0.74109  0.88455  0.81566  Biso   1.000  C
  H68      1.0000 0.52276  0.82198  0.80055  Biso   1.000  H
  H69      1.0000 0.60577  0.85762  0.89385  Biso   1.000  H
  N48      1.0000 0.63928  0.85984  0.77735  Biso   1.000  N
  C72      1.0000 0.78587  0.86374  0.74630  Biso   1.000  C
  H70      1.0000 0.65074  0.75709  0.56384  Biso   1.000  H
  H71      1.0000 0.77224  0.76110  0.61571  Biso   1.000  H
  N49      1.0000 0.70276  0.82885  0.66826  Biso   1.000  N
  O25      1.0000 0.82822  0.03059  0.75378  Biso   1.000  O
  H72      1.0000 0.78259  0.86958  0.88355  Biso   1.000  H
  C73      1.0000 0.61919  0.82159  0.69064  Biso   1.000  C
  H73      1.0000 0.84498  0.83409  0.77972  Biso   1.000  H
  O26      1.0000 0.54147  0.79361  0.64432  Biso   1.000  O
