data_image0
_cell_length_a       16.623
_cell_length_b       16.623
_cell_length_c       19.656
_cell_angle_alpha    90
_cell_angle_beta     90
_cell_angle_gamma    120

_symmetry_space_group_name_H-M    "P 1"
_symmetry_int_tables_number       1

loop_
  _symmetry_equiv_pos_as_xyz
  'x, y, z'

loop_
  _atom_site_label
  _atom_site_occupancy
  _atom_site_fract_x
  _atom_site_fract_y
  _atom_site_fract_z
  _atom_site_thermal_displace_type
  _atom_site_B_iso_or_equiv
  _atom_site_type_symbol
  C1       1.0000 0.26348  0.38559  0.57321  Biso   1.000  C
  C2       1.0000 0.26855  0.38754  0.50229  Biso   1.000  C
  O1       1.0000 0.28122  0.46812  0.60272  Biso   1.000  O
  C3       1.0000 0.24312  0.30564  0.60780  Biso   1.000  C
  C4       1.0000 0.25499  0.30953  0.46652  Biso   1.000  C
  O2       1.0000 0.28860  0.47048  0.47304  Biso   1.000  O
  C5       1.0000 0.28034  0.47333  0.67511  Biso   1.000  C
  C6       1.0000 0.23002  0.22819  0.57133  Biso   1.000  C
  H1       1.0000 0.23809  0.30328  0.65553  Biso   1.000  H
  C7       1.0000 0.23560  0.23020  0.50204  Biso   1.000  C
  H2       1.0000 0.25923  0.31092  0.41880  Biso   1.000  H
  C8       1.0000 0.29074  0.47631  0.40049  Biso   1.000  C
  C9       1.0000 0.30781  0.57315  0.68951  Biso   1.000  C
  H3       1.0000 0.21817  0.43068  0.69312  Biso   1.000  H
  H4       1.0000 0.32472  0.45791  0.69531  Biso   1.000  H
  H5       1.0000 0.21705  0.17373  0.59473  Biso   1.000  H
  H6       1.0000 0.22621  0.17713  0.47833  Biso   1.000  H
  C10      1.0000 0.31238  0.57398  0.38640  Biso   1.000  C
  H7       1.0000 0.33892  0.46513  0.38172  Biso   1.000  H
  H8       1.0000 0.23053  0.43109  0.38100  Biso   1.000  H
  C11      1.0000 0.40198  0.64129  0.69032  Biso   1.000  C
  C12      1.0000 0.23933  0.59802  0.69032  Biso   1.000  C
  C13      1.0000 0.40540  0.64560  0.38589  Biso   1.000  C
  C14      1.0000 0.24022  0.59461  0.38589  Biso   1.000  C
  C15      1.0000 0.47631  0.61441  0.68951  Biso   1.000  C
  C16      1.0000 0.42692  0.73472  0.68951  Biso   1.000  C
  C17      1.0000 0.13810  0.52369  0.68951  Biso   1.000  C
  C18      1.0000 0.26531  0.69221  0.68951  Biso   1.000  C
  C19      1.0000 0.42599  0.73840  0.38640  Biso   1.000  C
  C20      1.0000 0.48445  0.62323  0.38909  Biso   1.000  C
  C21      1.0000 0.26164  0.68762  0.38640  Biso   1.000  C
  C22      1.0000 0.13882  0.51563  0.38909  Biso   1.000  C
  C23      1.0000 0.51253  0.61010  0.62480  Biso   1.000  C
  H9       1.0000 0.45099  0.55342  0.71123  Biso   1.000  H
  H10      1.0000 0.52808  0.65901  0.71769  Biso   1.000  H
  C24      1.0000 0.52672  0.80703  0.67511  Biso   1.000  C
  C25      1.0000 0.35869  0.76070  0.69032  Biso   1.000  C
  C26      1.0000 0.09757  0.48750  0.62480  Biso   1.000  C
  H11      1.0000 0.10241  0.54904  0.71123  Biso   1.000  H
  H12      1.0000 0.13093  0.47194  0.71769  Biso   1.000  H
  C27      1.0000 0.19298  0.71972  0.67511  Biso   1.000  C
  C28      1.0000 0.52372  0.81440  0.40049  Biso   1.000  C
  C29      1.0000 0.35439  0.75980  0.38589  Biso   1.000  C
  C30      1.0000 0.51322  0.61219  0.45121  Biso   1.000  C
  C31      1.0000 0.52915  0.62684  0.33181  Biso   1.000  C
  C32      1.0000 0.18561  0.70930  0.40049  Biso   1.000  C
  C33      1.0000 0.09902  0.48680  0.45121  Biso   1.000  C
  C34      1.0000 0.09769  0.47090  0.33181  Biso   1.000  C
  H13      1.0000 0.55898  0.59169  0.63070  Biso   1.000  H
  H14      1.0000 0.46262  0.56502  0.59641  Biso   1.000  H
  H15      1.0000 0.54063  0.67074  0.60333  Biso   1.000  H
  O3       1.0000 0.53194  0.81315  0.60272  Biso   1.000  O
  H16      1.0000 0.56930  0.78751  0.69312  Biso   1.000  H
  H17      1.0000 0.54213  0.86684  0.69531  Biso   1.000  H
  C35      1.0000 0.38560  0.86191  0.68951  Biso   1.000  C
  H18      1.0000 0.03270  0.44103  0.63070  Biso   1.000  H
  H19      1.0000 0.10245  0.53744  0.59641  Biso   1.000  H
  H20      1.0000 0.13010  0.45944  0.60333  Biso   1.000  H
  O4       1.0000 0.18687  0.71881  0.60272  Biso   1.000  O
  H21      1.0000 0.21248  0.78182  0.69312  Biso   1.000  H
  H22      1.0000 0.13319  0.67533  0.69531  Biso   1.000  H
  O5       1.0000 0.52951  0.81815  0.47304  Biso   1.000  O
  H23      1.0000 0.53489  0.87379  0.38172  Biso   1.000  H
  H24      1.0000 0.56892  0.79939  0.38100  Biso   1.000  H
  C36      1.0000 0.37683  0.86122  0.38909  Biso   1.000  C
  H25      1.0000 0.56260  0.59774  0.44572  Biso   1.000  H
  H26      1.0000 0.53604  0.66915  0.47711  Biso   1.000  H
  H27      1.0000 0.46150  0.56169  0.47512  Biso   1.000  H
  H28      1.0000 0.49753  0.63483  0.29380  Biso   1.000  H
  H29      1.0000 0.59154  0.67825  0.33399  Biso   1.000  H
  H30      1.0000 0.53031  0.57009  0.32652  Biso   1.000  H
  O6       1.0000 0.18193  0.71145  0.47304  Biso   1.000  O
  H31      1.0000 0.12619  0.66109  0.38172  Biso   1.000  H
  H32      1.0000 0.20062  0.76952  0.38100  Biso   1.000  H
  H33      1.0000 0.03511  0.43741  0.44572  Biso   1.000  H
  H34      1.0000 0.13311  0.46402  0.47711  Biso   1.000  H
  H35      1.0000 0.10020  0.53849  0.47512  Biso   1.000  H
  H36      1.0000 0.13731  0.50250  0.29380  Biso   1.000  H
  H37      1.0000 0.08671  0.40852  0.33399  Biso   1.000  H
  H38      1.0000 0.03983  0.46972  0.32652  Biso   1.000  H
  C37      1.0000 0.61446  0.87796  0.57321  Biso   1.000  C
  C38      1.0000 0.38990  0.90241  0.62480  Biso   1.000  C
  H39      1.0000 0.44658  0.89761  0.71123  Biso   1.000  H
  H40      1.0000 0.34102  0.86913  0.71769  Biso   1.000  H
  C39      1.0000 0.12210  0.73653  0.57321  Biso   1.000  C
  C40      1.0000 0.61250  0.88101  0.50229  Biso   1.000  C
  C41      1.0000 0.38782  0.90102  0.45121  Biso   1.000  C
  C42      1.0000 0.37320  0.90234  0.33181  Biso   1.000  C
  C43      1.0000 0.11900  0.73153  0.50229  Biso   1.000  C
  C44      1.0000 0.69443  0.93756  0.60780  Biso   1.000  C
  H41      1.0000 0.40830  0.96736  0.63070  Biso   1.000  H
  H42      1.0000 0.43503  0.89761  0.59641  Biso   1.000  H
  H43      1.0000 0.32931  0.86990  0.60333  Biso   1.000  H
  C45      1.0000 0.06253  0.75695  0.60780  Biso   1.000  C
  C46      1.0000 0.69054  0.94554  0.46652  Biso   1.000  C
  H44      1.0000 0.40233  0.96492  0.44572  Biso   1.000  H
  H45      1.0000 0.33089  0.86691  0.47711  Biso   1.000  H
  H46      1.0000 0.43831  0.89984  0.47512  Biso   1.000  H
  H47      1.0000 0.36520  0.86274  0.29380  Biso   1.000  H
  H48      1.0000 0.32178  0.91331  0.33399  Biso   1.000  H
  H49      1.0000 0.42993  0.96020  0.32652  Biso   1.000  H
  C47      1.0000 0.05451  0.74500  0.46652  Biso   1.000  C
  H50      1.0000 0.69674  0.93485  0.65553  Biso   1.000  H
  C48      1.0000 0.77179  0.00181  0.57133  Biso   1.000  C
  H51      1.0000 0.06521  0.76195  0.65553  Biso   1.000  H
  C49      1.0000 0.99819  0.77001  0.57133  Biso   1.000  C
  H52      1.0000 0.68910  0.94832  0.41880  Biso   1.000  H
  C50      1.0000 0.76987  0.00542  0.50204  Biso   1.000  C
  H53      1.0000 0.05170  0.74083  0.41880  Biso   1.000  H
  C51      1.0000 0.99463  0.76445  0.50204  Biso   1.000  C
  H54      1.0000 0.82631  0.04335  0.59473  Biso   1.000  H
  H55      1.0000 0.95668  0.78300  0.59473  Biso   1.000  H
  H56      1.0000 0.82294  0.04912  0.47833  Biso   1.000  H
  H57      1.0000 0.95089  0.77383  0.47833  Biso   1.000  H
  C52      1.0000 0.61444  0.47631  0.81054  Biso   1.000  C
  C53      1.0000 0.64129  0.40199  0.80973  Biso   1.000  C
  C54      1.0000 0.61010  0.51251  0.87520  Biso   1.000  C
  H58      1.0000 0.55343  0.45103  0.78882  Biso   1.000  H
  H59      1.0000 0.65900  0.52814  0.78231  Biso   1.000  H
  C55      1.0000 0.57314  0.30780  0.81054  Biso   1.000  C
  C56      1.0000 0.73473  0.42693  0.81054  Biso   1.000  C
  H60      1.0000 0.59174  0.55905  0.86930  Biso   1.000  H
  H61      1.0000 0.56501  0.46263  0.90364  Biso   1.000  H
  H62      1.0000 0.67073  0.54064  0.89672  Biso   1.000  H
  C57      1.0000 0.47330  0.28029  0.82494  Biso   1.000  C
  C58      1.0000 0.59803  0.23930  0.80973  Biso   1.000  C
  C59      1.0000 0.80702  0.52675  0.82494  Biso   1.000  C
  C60      1.0000 0.76072  0.35871  0.80973  Biso   1.000  C
  O7       1.0000 0.46809  0.28119  0.89728  Biso   1.000  O
  H63      1.0000 0.43070  0.21819  0.80693  Biso   1.000  H
  H64      1.0000 0.45789  0.32467  0.80474  Biso   1.000  H
  C61      1.0000 0.52372  0.13809  0.81054  Biso   1.000  C
  C62      1.0000 0.69223  0.26528  0.81054  Biso   1.000  C
  O8       1.0000 0.81308  0.53189  0.89728  Biso   1.000  O
  H65      1.0000 0.78752  0.56933  0.80693  Biso   1.000  H
  H66      1.0000 0.86679  0.54210  0.80474  Biso   1.000  H
  C63      1.0000 0.86193  0.38559  0.81054  Biso   1.000  C
  C64      1.0000 0.38560  0.26348  0.92684  Biso   1.000  C
  C65      1.0000 0.48753  0.09760  0.87520  Biso   1.000  C
  H67      1.0000 0.54900  0.10239  0.78882  Biso   1.000  H
  H68      1.0000 0.47192  0.13087  0.78231  Biso   1.000  H
  C66      1.0000 0.71972  0.19297  0.82494  Biso   1.000  C
  C67      1.0000 0.87792  0.61441  0.92684  Biso   1.000  C
  C68      1.0000 0.90240  0.38990  0.87520  Biso   1.000  C
  H69      1.0000 0.89760  0.44658  0.78882  Biso   1.000  H
  H70      1.0000 0.86911  0.34100  0.78231  Biso   1.000  H
  C69      1.0000 0.38750  0.26848  0.99771  Biso   1.000  C
  C70      1.0000 0.30564  0.24312  0.89220  Biso   1.000  C
  H71      1.0000 0.44101  0.03272  0.86930  Biso   1.000  H
  H72      1.0000 0.53739  0.10239  0.90364  Biso   1.000  H
  H73      1.0000 0.45939  0.13011  0.89672  Biso   1.000  H
  O9       1.0000 0.71880  0.18693  0.89728  Biso   1.000  O
  H74      1.0000 0.78182  0.21249  0.80693  Biso   1.000  H
  H75      1.0000 0.67535  0.13323  0.80474  Biso   1.000  H
  C71      1.0000 0.93754  0.69443  0.89220  Biso   1.000  C
  C72      1.0000 0.88101  0.61253  0.99771  Biso   1.000  C
  H76      1.0000 0.96731  0.40831  0.86930  Biso   1.000  H
  H77      1.0000 0.89763  0.43498  0.90364  Biso   1.000  H
  H78      1.0000 0.86995  0.32933  0.89672  Biso   1.000  H
  O10      1.0000 0.47055  0.28862  0.02696  Biso   1.000  O
  C73      1.0000 0.30948  0.25500  0.03353  Biso   1.000  C
  H79      1.0000 0.30332  0.23812  0.84453  Biso   1.000  H
  C74      1.0000 0.22821  0.23000  0.92872  Biso   1.000  C
  C75      1.0000 0.73651  0.12212  0.92684  Biso   1.000  C
  H80      1.0000 0.93484  0.69672  0.84453  Biso   1.000  H
  C76      1.0000 0.00180  0.77181  0.92872  Biso   1.000  C
  O11      1.0000 0.81815  0.52952  0.02696  Biso   1.000  O
  C77      1.0000 0.94552  0.69054  0.03353  Biso   1.000  C
  C78      1.0000 0.47634  0.29071  0.09951  Biso   1.000  C
  C79      1.0000 0.23019  0.23562  0.99802  Biso   1.000  C
  H81      1.0000 0.31093  0.25924  0.08120  Biso   1.000  H
  H82      1.0000 0.17371  0.21701  0.90532  Biso   1.000  H
  C80      1.0000 0.75694  0.06252  0.89220  Biso   1.000  C
  C81      1.0000 0.73152  0.11899  0.99771  Biso   1.000  C
  H83      1.0000 0.04332  0.82634  0.90532  Biso   1.000  H
  C82      1.0000 0.00543  0.76980  0.99802  Biso   1.000  C
  C83      1.0000 0.81439  0.52369  0.09951  Biso   1.000  C
  H84      1.0000 0.94828  0.68908  0.08120  Biso   1.000  H
  C84      1.0000 0.57398  0.31238  0.11360  Biso   1.000  C
  H85      1.0000 0.46513  0.33891  0.11834  Biso   1.000  H
  H86      1.0000 0.43113  0.23048  0.11905  Biso   1.000  H
  H87      1.0000 0.17710  0.22617  0.02172  Biso   1.000  H
  H88      1.0000 0.76190  0.06523  0.84453  Biso   1.000  H
  C85      1.0000 0.77002  0.99819  0.92872  Biso   1.000  C
  C86      1.0000 0.74501  0.05453  0.03353  Biso   1.000  C
  O12      1.0000 0.71143  0.18193  0.02696  Biso   1.000  O
  H89      1.0000 0.04914  0.82294  0.02172  Biso   1.000  H
  C87      1.0000 0.73843  0.42602  0.11360  Biso   1.000  C
  H90      1.0000 0.87386  0.53494  0.11834  Biso   1.000  H
  H91      1.0000 0.79940  0.56891  0.11905  Biso   1.000  H
  C88      1.0000 0.64564  0.40539  0.11411  Biso   1.000  C
  C89      1.0000 0.59463  0.24021  0.11411  Biso   1.000  C
  H92      1.0000 0.78303  0.95672  0.90532  Biso   1.000  H
  C90      1.0000 0.76442  0.99458  0.99802  Biso   1.000  C
  H93      1.0000 0.74081  0.05168  0.08120  Biso   1.000  H
  C91      1.0000 0.70930  0.18561  0.09951  Biso   1.000  C
  C92      1.0000 0.75983  0.35441  0.11411  Biso   1.000  C
  C93      1.0000 0.62326  0.48444  0.11091  Biso   1.000  C
  C94      1.0000 0.68762  0.26160  0.11360  Biso   1.000  C
  C95      1.0000 0.51558  0.13879  0.11091  Biso   1.000  C
  H94      1.0000 0.77380  0.95089  0.02172  Biso   1.000  H
  H95      1.0000 0.66113  0.12622  0.11834  Biso   1.000  H
  H96      1.0000 0.76950  0.20061  0.11905  Biso   1.000  H
  C96      1.0000 0.86122  0.37684  0.11091  Biso   1.000  C
  C97      1.0000 0.61219  0.51320  0.04884  Biso   1.000  C
  C98      1.0000 0.62682  0.52911  0.16824  Biso   1.000  C
  C99      1.0000 0.48678  0.09899  0.04884  Biso   1.000  C
  C100     1.0000 0.47093  0.09774  0.16824  Biso   1.000  C
  C101     1.0000 0.90100  0.38782  0.04884  Biso   1.000  C
  C102     1.0000 0.90231  0.37323  0.16824  Biso   1.000  C
  H97      1.0000 0.59772  0.56259  0.05433  Biso   1.000  H
  H98      1.0000 0.66912  0.53598  0.02294  Biso   1.000  H
  H99      1.0000 0.56175  0.46152  0.02493  Biso   1.000  H
  H100     1.0000 0.63478  0.49750  0.20625  Biso   1.000  H
  H101     1.0000 0.67823  0.59149  0.16601  Biso   1.000  H
  H102     1.0000 0.57008  0.53029  0.17353  Biso   1.000  H
  H103     1.0000 0.43738  0.03508  0.05433  Biso   1.000  H
  H104     1.0000 0.46401  0.13309  0.02294  Biso   1.000  H
  H105     1.0000 0.53854  0.10024  0.02493  Biso   1.000  H
  H106     1.0000 0.50252  0.13733  0.20625  Biso   1.000  H
  H107     1.0000 0.40850  0.08669  0.16601  Biso   1.000  H
  H108     1.0000 0.46970  0.03980  0.17353  Biso   1.000  H
  H109     1.0000 0.96493  0.40234  0.05433  Biso   1.000  H
  H110     1.0000 0.86690  0.33093  0.02294  Biso   1.000  H
  H111     1.0000 0.89984  0.43832  0.02493  Biso   1.000  H
  H112     1.0000 0.86276  0.36524  0.20625  Biso   1.000  H
  H113     1.0000 0.91330  0.32183  0.16601  Biso   1.000  H
  H114     1.0000 0.96025  0.42991  0.17353  Biso   1.000  H
  C103     1.0000 0.38559  0.52369  0.18951  Biso   1.000  C
  C104     1.0000 0.38993  0.48750  0.12480  Biso   1.000  C
  H115     1.0000 0.44663  0.54904  0.21118  Biso   1.000  H
  H116     1.0000 0.34100  0.47194  0.21769  Biso   1.000  H
  C105     1.0000 0.35868  0.59802  0.19032  Biso   1.000  C
  H117     1.0000 0.40833  0.44103  0.13070  Biso   1.000  H
  H118     1.0000 0.43500  0.53744  0.09641  Biso   1.000  H
  H119     1.0000 0.32934  0.45944  0.10333  Biso   1.000  H
  C106     1.0000 0.26534  0.57315  0.18951  Biso   1.000  C
  C107     1.0000 0.42690  0.69221  0.18951  Biso   1.000  C
  C108     1.0000 0.19299  0.47333  0.17511  Biso   1.000  C
  C109     1.0000 0.23931  0.64129  0.19032  Biso   1.000  C
  C110     1.0000 0.40201  0.76070  0.19032  Biso   1.000  C
  C111     1.0000 0.52674  0.71972  0.17511  Biso   1.000  C
  O13      1.0000 0.18690  0.46812  0.10272  Biso   1.000  O
  H120     1.0000 0.21251  0.43068  0.19312  Biso   1.000  H
  H121     1.0000 0.13318  0.45791  0.19531  Biso   1.000  H
  C112     1.0000 0.30780  0.73472  0.18951  Biso   1.000  C
  C113     1.0000 0.13810  0.61441  0.18951  Biso   1.000  C
  C114     1.0000 0.47631  0.86191  0.18951  Biso   1.000  C
  O14      1.0000 0.53194  0.71881  0.10272  Biso   1.000  O
  H122     1.0000 0.56934  0.78182  0.19312  Biso   1.000  H
  H123     1.0000 0.54214  0.67533  0.19531  Biso   1.000  H
  C115     1.0000 0.12211  0.38559  0.07321  Biso   1.000  C
  C116     1.0000 0.28031  0.80703  0.17511  Biso   1.000  C
  C117     1.0000 0.09757  0.61010  0.12480  Biso   1.000  C
  H124     1.0000 0.10243  0.55342  0.21118  Biso   1.000  H
  H125     1.0000 0.13092  0.65901  0.21769  Biso   1.000  H
  C118     1.0000 0.51250  0.90241  0.12480  Biso   1.000  C
  H126     1.0000 0.45103  0.89761  0.21118  Biso   1.000  H
  H127     1.0000 0.52811  0.86913  0.21769  Biso   1.000  H
  C119     1.0000 0.61443  0.73653  0.07321  Biso   1.000  C
  C120     1.0000 0.06252  0.30564  0.10780  Biso   1.000  C
  C121     1.0000 0.11899  0.38754  0.00229  Biso   1.000  C
  O15      1.0000 0.28120  0.81315  0.10272  Biso   1.000  O
  H128     1.0000 0.21822  0.78751  0.19312  Biso   1.000  H
  H129     1.0000 0.32472  0.86684  0.19531  Biso   1.000  H
  H130     1.0000 0.03272  0.59169  0.13070  Biso   1.000  H
  H131     1.0000 0.10240  0.56502  0.09641  Biso   1.000  H
  H132     1.0000 0.13011  0.67074  0.10333  Biso   1.000  H
  H133     1.0000 0.55906  0.96736  0.13070  Biso   1.000  H
  H134     1.0000 0.46258  0.89761  0.09641  Biso   1.000  H
  H135     1.0000 0.54059  0.86990  0.10333  Biso   1.000  H
  C122     1.0000 0.61253  0.73153  0.00229  Biso   1.000  C
  C123     1.0000 0.69442  0.75695  0.10780  Biso   1.000  C
  H136     1.0000 0.06519  0.30328  0.15553  Biso   1.000  H
  C124     1.0000 0.99817  0.22819  0.07133  Biso   1.000  C
  O16      1.0000 0.18188  0.47048  0.97304  Biso   1.000  O
  C125     1.0000 0.05454  0.30953  0.96652  Biso   1.000  C
  C126     1.0000 0.26350  0.87796  0.07321  Biso   1.000  C
  O17      1.0000 0.52952  0.71145  0.97304  Biso   1.000  O
  C127     1.0000 0.69049  0.74500  0.96652  Biso   1.000  C
  H137     1.0000 0.69674  0.76195  0.15553  Biso   1.000  H
  C128     1.0000 0.77182  0.77001  0.07133  Biso   1.000  C
  H138     1.0000 0.95668  0.17373  0.09468  Biso   1.000  H
  C129     1.0000 0.99461  0.23020  0.00198  Biso   1.000  C
  C130     1.0000 0.18558  0.47631  0.90049  Biso   1.000  C
  H139     1.0000 0.05169  0.31092  0.91880  Biso   1.000  H
  C131     1.0000 0.24313  0.93756  0.10780  Biso   1.000  C
  C132     1.0000 0.26852  0.88101  0.00229  Biso   1.000  C
  C133     1.0000 0.52369  0.70930  0.90049  Biso   1.000  C
  C134     1.0000 0.76982  0.76445  0.00198  Biso   1.000  C
  H140     1.0000 0.68913  0.74083  0.91880  Biso   1.000  H
  H141     1.0000 0.82632  0.78300  0.09468  Biso   1.000  H
  H142     1.0000 0.95093  0.17713  0.97828  Biso   1.000  H
  H143     1.0000 0.12621  0.46513  0.88172  Biso   1.000  H
  H144     1.0000 0.20057  0.43109  0.88100  Biso   1.000  H
  C135     1.0000 0.26160  0.57398  0.88640  Biso   1.000  C
  H145     1.0000 0.23810  0.93485  0.15553  Biso   1.000  H
  C136     1.0000 0.23002  0.00181  0.07133  Biso   1.000  C
  C137     1.0000 0.25500  0.94554  0.96652  Biso   1.000  C
  O18      1.0000 0.28864  0.81815  0.97304  Biso   1.000  O
  C138     1.0000 0.42599  0.68762  0.88640  Biso   1.000  C
  H146     1.0000 0.53490  0.66109  0.88172  Biso   1.000  H
  H147     1.0000 0.56890  0.76952  0.88100  Biso   1.000  H
  H148     1.0000 0.82294  0.77383  0.97828  Biso   1.000  H
  C139     1.0000 0.35440  0.59461  0.88589  Biso   1.000  C
  C140     1.0000 0.24020  0.64560  0.88589  Biso   1.000  C
  H149     1.0000 0.21704  0.04335  0.09468  Biso   1.000  H
  C141     1.0000 0.23567  0.00542  0.00198  Biso   1.000  C
  H150     1.0000 0.25922  0.94832  0.91880  Biso   1.000  H
  C142     1.0000 0.29067  0.81440  0.90049  Biso   1.000  C
  C143     1.0000 0.40541  0.75980  0.88589  Biso   1.000  C
  C144     1.0000 0.37681  0.51563  0.88909  Biso   1.000  C
  C145     1.0000 0.31241  0.73840  0.88640  Biso   1.000  C
  C146     1.0000 0.13878  0.62323  0.88909  Biso   1.000  C
  H151     1.0000 0.22618  0.04912  0.97828  Biso   1.000  H
  H152     1.0000 0.33890  0.87379  0.88172  Biso   1.000  H
  H153     1.0000 0.23047  0.79939  0.88100  Biso   1.000  H
  C147     1.0000 0.48439  0.86122  0.88909  Biso   1.000  C
  C148     1.0000 0.38778  0.48680  0.95121  Biso   1.000  C
  C149     1.0000 0.37321  0.47090  0.83181  Biso   1.000  C
  C150     1.0000 0.09897  0.61219  0.95121  Biso   1.000  C
  C151     1.0000 0.09770  0.62684  0.83181  Biso   1.000  C
  C152     1.0000 0.51319  0.90102  0.95121  Biso   1.000  C
  C153     1.0000 0.52913  0.90234  0.83181  Biso   1.000  C
  H154     1.0000 0.40231  0.43741  0.94572  Biso   1.000  H
  H155     1.0000 0.33091  0.46402  0.97711  Biso   1.000  H
  H156     1.0000 0.43829  0.53849  0.97512  Biso   1.000  H
  H157     1.0000 0.36519  0.50250  0.79380  Biso   1.000  H
  H158     1.0000 0.32181  0.40852  0.83399  Biso   1.000  H
  H159     1.0000 0.42989  0.46972  0.82652  Biso   1.000  H
  H160     1.0000 0.03514  0.59774  0.94572  Biso   1.000  H
  H161     1.0000 0.13311  0.66915  0.97711  Biso   1.000  H
  H162     1.0000 0.10019  0.56169  0.97512  Biso   1.000  H
  H163     1.0000 0.13730  0.63483  0.79380  Biso   1.000  H
  H164     1.0000 0.08670  0.67825  0.83399  Biso   1.000  H
  H165     1.0000 0.03978  0.57009  0.82652  Biso   1.000  H
  H166     1.0000 0.56259  0.96492  0.94572  Biso   1.000  H
  H167     1.0000 0.53602  0.86691  0.97711  Biso   1.000  H
  H168     1.0000 0.46153  0.89984  0.97512  Biso   1.000  H
  H169     1.0000 0.49754  0.86274  0.79380  Biso   1.000  H
  H170     1.0000 0.59153  0.91331  0.83399  Biso   1.000  H
  H171     1.0000 0.53027  0.96020  0.82652  Biso   1.000  H
  Ne1      1.0000 0.33334  0.66668  0.02693  Biso   1.000  Ne
  He1      1.0000 0.11144  0.50806  0.03646  Biso   1.000  He
  He2      1.0000 0.39433  0.85276  0.03589  Biso   1.000  He
  He3      1.0000 0.55354  0.82134  0.04013  Biso   1.000  He
  Ar1      1.0000 0.33335  0.66671  0.03788  Biso   1.000  Ar
  Ne2      1.0000 0.33335  0.66668  0.52694  Biso   1.000  Ne
  He4      1.0000 0.39556  0.51074  0.53641  Biso   1.000  He
  He5      1.0000 0.29152  0.80181  0.54097  Biso   1.000  He
  Ar2      1.0000 0.33333  0.66669  0.53803  Biso   1.000  Ar
  Ne3      1.0000 0.66668  0.33334  0.97309  Biso   1.000  Ne
  He6      1.0000 0.58680  0.07415  0.96321  Biso   1.000  He
  He7      1.0000 0.80378  0.28889  0.95916  Biso   1.000  He
  Ar3      1.0000 0.66670  0.33333  0.96215  Biso   1.000  Ar
