data_image0
_cell_length_a       13.522
_cell_length_b       21.957
_cell_length_c       14.057
_cell_angle_alpha    90
_cell_angle_beta     94.26
_cell_angle_gamma    90

_symmetry_space_group_name_H-M    "P 1"
_symmetry_int_tables_number       1

loop_
  _symmetry_equiv_pos_as_xyz
  'x, y, z'

loop_
  _atom_site_label
  _atom_site_occupancy
  _atom_site_fract_x
  _atom_site_fract_y
  _atom_site_fract_z
  _atom_site_thermal_displace_type
  _atom_site_B_iso_or_equiv
  _atom_site_type_symbol
  C1       1.0000 0.37578  0.51687  0.52411  Biso   1.000  C
  C2       1.0000 0.39138  0.46304  0.57490  Biso   1.000  C
  C3       1.0000 0.33733  0.51551  0.43137  Biso   1.000  C
  H1       1.0000 0.39166  0.55440  0.55357  Biso   1.000  H
  C4       1.0000 0.36938  0.40802  0.53131  Biso   1.000  C
  H2       1.0000 0.41682  0.46418  0.63896  Biso   1.000  H
  C5       1.0000 0.31538  0.46054  0.38557  Biso   1.000  C
  H3       1.0000 0.32553  0.55231  0.39820  Biso   1.000  H
  C6       1.0000 0.33232  0.40666  0.43536  Biso   1.000  C
  O1       1.0000 0.37779  0.35192  0.57311  Biso   1.000  O
  H4       1.0000 0.28960  0.45999  0.32173  Biso   1.000  H
  O2       1.0000 0.31739  0.34955  0.39913  Biso   1.000  O
  C7       1.0000 0.43942  0.34354  0.65879  Biso   1.000  C
  C8       1.0000 0.26677  0.33971  0.30867  Biso   1.000  C
  C9       1.0000 0.45169  0.27495  0.66721  Biso   1.000  C
  H5       1.0000 0.40772  0.35998  0.71372  Biso   1.000  H
  H6       1.0000 0.50373  0.36348  0.65451  Biso   1.000  H
  C10      1.0000 0.26103  0.27103  0.29947  Biso   1.000  C
  H7       1.0000 0.30367  0.35729  0.25788  Biso   1.000  H
  H8       1.0000 0.20036  0.35770  0.30582  Biso   1.000  H
  C11      1.0000 0.53211  0.24630  0.62647  Biso   1.000  C
  C12      1.0000 0.37681  0.24024  0.70416  Biso   1.000  C
  C13      1.0000 0.33853  0.23965  0.26109  Biso   1.000  C
  C14      1.0000 0.18307  0.23947  0.33942  Biso   1.000  C
  C15      1.0000 0.53702  0.18231  0.62590  Biso   1.000  C
  C16      1.0000 0.60928  0.28410  0.57911  Biso   1.000  C
  C17      1.0000 0.38221  0.17612  0.70130  Biso   1.000  C
  C18      1.0000 0.29000  0.27021  0.74739  Biso   1.000  C
  C19      1.0000 0.33890  0.17543  0.26209  Biso   1.000  C
  C20      1.0000 0.42330  0.27322  0.21822  Biso   1.000  C
  C21      1.0000 0.18358  0.17498  0.33742  Biso   1.000  C
  C22      1.0000 0.10500  0.27390  0.38957  Biso   1.000  C
  C23      1.0000 0.61739  0.15011  0.57682  Biso   1.000  C
  C24      1.0000 0.46084  0.14715  0.66121  Biso   1.000  C
  H9       1.0000 0.61888  0.32281  0.61342  Biso   1.000  H
  H10      1.0000 0.67273  0.26229  0.58389  Biso   1.000  H
  C25      1.0000 0.57948  0.29722  0.47481  Biso   1.000  C
  C26      1.0000 0.29459  0.13868  0.72827  Biso   1.000  C
  H11      1.0000 0.22969  0.24662  0.73062  Biso   1.000  H
  H12      1.0000 0.28042  0.31120  0.72092  Biso   1.000  H
  C27      1.0000 0.30681  0.27431  0.85582  Biso   1.000  C
  C28      1.0000 0.43089  0.14305  0.23412  Biso   1.000  C
  C29      1.0000 0.26171  0.14323  0.30061  Biso   1.000  C
  H13      1.0000 0.43179  0.31320  0.24868  Biso   1.000  H
  H14      1.0000 0.48489  0.25022  0.23149  Biso   1.000  H
  C30      1.0000 0.40464  0.28160  0.11157  Biso   1.000  C
  C31      1.0000 0.10483  0.14032  0.38643  Biso   1.000  C
  H15      1.0000 0.04181  0.25208  0.38051  Biso   1.000  H
  H16      1.0000 0.09586  0.31430  0.36032  Biso   1.000  H
  C32      1.0000 0.13213  0.28150  0.49571  Biso   1.000  C
  O3       1.0000 0.57864  0.14323  0.48109  Biso   1.000  O
  H17      1.0000 0.67828  0.17448  0.58010  Biso   1.000  H
  H18      1.0000 0.63201  0.11040  0.60621  Biso   1.000  H
  C33      1.0000 0.46361  0.07802  0.65408  Biso   1.000  C
  H19      1.0000 0.63073  0.32140  0.44799  Biso   1.000  H
  H20      1.0000 0.51748  0.31958  0.46968  Biso   1.000  H
  H21      1.0000 0.57141  0.25910  0.44021  Biso   1.000  H
  O4       1.0000 0.23447  0.13290  0.64117  Biso   1.000  O
  H22      1.0000 0.31601  0.09869  0.75281  Biso   1.000  H
  H23      1.0000 0.25862  0.15972  0.77671  Biso   1.000  H
  H24      1.0000 0.25006  0.29389  0.88136  Biso   1.000  H
  H25      1.0000 0.36608  0.29799  0.87258  Biso   1.000  H
  H26      1.0000 0.31469  0.23359  0.88228  Biso   1.000  H
  O5       1.0000 0.50108  0.15034  0.31466  Biso   1.000  O
  H27      1.0000 0.41742  0.09979  0.22150  Biso   1.000  H
  H28      1.0000 0.45561  0.16159  0.17698  Biso   1.000  H
  C34      1.0000 0.26889  0.07414  0.30931  Biso   1.000  C
  H29      1.0000 0.46014  0.30300  0.08710  Biso   1.000  H
  H30      1.0000 0.34451  0.30519  0.09809  Biso   1.000  H
  H31      1.0000 0.39717  0.24211  0.08097  Biso   1.000  H
  O6       1.0000 0.14918  0.12579  0.47802  Biso   1.000  O
  H32      1.0000 0.04569  0.16560  0.39149  Biso   1.000  H
  H33      1.0000 0.08567  0.10320  0.35090  Biso   1.000  H
  H34      1.0000 0.08019  0.30409  0.52418  Biso   1.000  H
  H35      1.0000 0.19417  0.30359  0.50520  Biso   1.000  H
  H36      1.0000 0.13923  0.24179  0.52539  Biso   1.000  H
  C35      1.0000 0.62942  0.11258  0.41660  Biso   1.000  C
  H37      1.0000 0.39559  0.06230  0.64659  Biso   1.000  H
  H38      1.0000 0.49709  0.06631  0.59730  Biso   1.000  H
  C36      1.0000 0.51743  0.04941  0.74189  Biso   1.000  C
  C37      1.0000 0.14387  0.10580  0.63917  Biso   1.000  C
  C38      1.0000 0.58538  0.11586  0.32322  Biso   1.000  C
  H39      1.0000 0.20202  0.05688  0.30903  Biso   1.000  H
  H40      1.0000 0.30020  0.05779  0.25410  Biso   1.000  H
  C39      1.0000 0.32856  0.05479  0.40005  Biso   1.000  C
  C40      1.0000 0.09539  0.10252  0.54772  Biso   1.000  C
  C41      1.0000 0.71624  0.08025  0.43479  Biso   1.000  C
  H41      1.0000 0.51826  0.00551  0.73448  Biso   1.000  H
  H42      1.0000 0.48322  0.05989  0.79789  Biso   1.000  H
  H43      1.0000 0.58492  0.06458  0.74917  Biso   1.000  H
  C42      1.0000 0.09947  0.08312  0.71636  Biso   1.000  C
  C43      1.0000 0.62882  0.08758  0.24982  Biso   1.000  C
  H44      1.0000 0.33102  0.01070  0.40326  Biso   1.000  H
  H45      1.0000 0.29737  0.07059  0.45491  Biso   1.000  H
  H46      1.0000 0.39539  0.07082  0.39977  Biso   1.000  H
  C44      1.0000 0.00351  0.07638  0.53488  Biso   1.000  C
  H47      1.0000 0.74628  0.07811  0.49721  Biso   1.000  H
  C45      1.0000 0.75871  0.05101  0.36039  Biso   1.000  C
  H48      1.0000 0.13159  0.08571  0.77792  Biso   1.000  H
  C46      1.0000 0.00602  0.05620  0.70230  Biso   1.000  C
  C47      1.0000 0.71620  0.05452  0.26958  Biso   1.000  C
  H49      1.0000 0.60000  0.09040  0.18690  Biso   1.000  H
  C48      1.0000 0.95858  0.05292  0.61278  Biso   1.000  C
  H50      1.0000 0.97089  0.07428  0.47346  Biso   1.000  H
  H51      1.0000 0.81742  0.02860  0.37266  Biso   1.000  H
  H52      1.0000 0.97515  0.04031  0.75466  Biso   1.000  H
  H53      1.0000 0.74595  0.03439  0.22000  Biso   1.000  H
  H54      1.0000 0.89556  0.03470  0.60407  Biso   1.000  H
  C49      1.0000 0.62424  0.48308  0.47588  Biso   1.000  C
  C50      1.0000 0.60863  0.53696  0.42509  Biso   1.000  C
  H55      1.0000 0.60828  0.44560  0.44642  Biso   1.000  H
  C51      1.0000 0.66268  0.48449  0.56862  Biso   1.000  C
  C52      1.0000 0.63063  0.59193  0.46868  Biso   1.000  C
  H56      1.0000 0.58319  0.53577  0.36096  Biso   1.000  H
  H57      1.0000 0.67448  0.44769  0.60179  Biso   1.000  H
  C53      1.0000 0.68463  0.53942  0.61442  Biso   1.000  C
  O7       1.0000 0.62223  0.64804  0.42687  Biso   1.000  O
  C54      1.0000 0.66770  0.59334  0.56462  Biso   1.000  C
  H58      1.0000 0.71042  0.54001  0.67826  Biso   1.000  H
  C55      1.0000 0.56059  0.65646  0.34120  Biso   1.000  C
  O8       1.0000 0.68262  0.65045  0.60086  Biso   1.000  O
  C56      1.0000 0.54833  0.72505  0.33278  Biso   1.000  C
  H59      1.0000 0.59229  0.63998  0.28627  Biso   1.000  H
  H60      1.0000 0.49628  0.63652  0.34548  Biso   1.000  H
  C57      1.0000 0.73324  0.66029  0.69132  Biso   1.000  C
  C58      1.0000 0.46791  0.75370  0.37352  Biso   1.000  C
  C59      1.0000 0.62320  0.75976  0.29583  Biso   1.000  C
  H61      1.0000 0.69634  0.64271  0.74211  Biso   1.000  H
  H62      1.0000 0.79957  0.64230  0.69417  Biso   1.000  H
  C60      1.0000 0.73898  0.72897  0.70052  Biso   1.000  C
  C61      1.0000 0.46299  0.81764  0.37409  Biso   1.000  C
  C62      1.0000 0.39073  0.71590  0.42088  Biso   1.000  C
  C63      1.0000 0.61780  0.82388  0.29868  Biso   1.000  C
  C64      1.0000 0.71001  0.72979  0.25260  Biso   1.000  C
  C65      1.0000 0.66148  0.76035  0.73890  Biso   1.000  C
  C66      1.0000 0.81687  0.76053  0.66057  Biso   1.000  C
  C67      1.0000 0.53918  0.85285  0.33877  Biso   1.000  C
  C68      1.0000 0.38263  0.84989  0.42317  Biso   1.000  C
  H63      1.0000 0.38113  0.67719  0.38657  Biso   1.000  H
  H64      1.0000 0.32728  0.73771  0.41610  Biso   1.000  H
  C69      1.0000 0.42053  0.70278  0.52518  Biso   1.000  C
  C70      1.0000 0.70542  0.86127  0.27172  Biso   1.000  C
  H65      1.0000 0.77032  0.75338  0.26936  Biso   1.000  H
  H66      1.0000 0.71960  0.68880  0.27907  Biso   1.000  H
  C71      1.0000 0.69321  0.72569  0.14417  Biso   1.000  C
  C72      1.0000 0.66111  0.82457  0.73790  Biso   1.000  C
  C73      1.0000 0.57671  0.72678  0.78177  Biso   1.000  C
  C74      1.0000 0.81644  0.82502  0.66257  Biso   1.000  C
  C75      1.0000 0.89502  0.72610  0.61042  Biso   1.000  C
  C76      1.0000 0.53640  0.92198  0.34591  Biso   1.000  C
  O9       1.0000 0.42137  0.85677  0.51890  Biso   1.000  O
  H67      1.0000 0.32173  0.82548  0.41988  Biso   1.000  H
  H68      1.0000 0.36801  0.88960  0.39377  Biso   1.000  H
  H69      1.0000 0.36928  0.67860  0.55200  Biso   1.000  H
  H70      1.0000 0.48253  0.68038  0.53031  Biso   1.000  H
  H71      1.0000 0.42860  0.74090  0.55977  Biso   1.000  H
  O10      1.0000 0.76554  0.86706  0.35882  Biso   1.000  O
  H72      1.0000 0.68400  0.90131  0.24718  Biso   1.000  H
  H73      1.0000 0.74140  0.84028  0.22328  Biso   1.000  H
  H74      1.0000 0.74995  0.70611  0.11863  Biso   1.000  H
  H75      1.0000 0.63393  0.70201  0.12741  Biso   1.000  H
  H76      1.0000 0.68532  0.76641  0.11770  Biso   1.000  H
  C77      1.0000 0.56912  0.85695  0.76586  Biso   1.000  C
  C78      1.0000 0.73830  0.85677  0.69938  Biso   1.000  C
  H77      1.0000 0.56822  0.68680  0.75131  Biso   1.000  H
  H78      1.0000 0.51512  0.74978  0.76850  Biso   1.000  H
  C79      1.0000 0.59538  0.71840  0.88842  Biso   1.000  C
  C80      1.0000 0.89518  0.85968  0.61356  Biso   1.000  C
  H79      1.0000 0.95821  0.74787  0.61948  Biso   1.000  H
  H80      1.0000 0.90408  0.68570  0.63967  Biso   1.000  H
  C81      1.0000 0.86789  0.71850  0.50427  Biso   1.000  C
  H81      1.0000 0.60442  0.93770  0.35340  Biso   1.000  H
  H82      1.0000 0.50292  0.93369  0.40269  Biso   1.000  H
  C82      1.0000 0.48258  0.95059  0.25809  Biso   1.000  C
  C83      1.0000 0.37059  0.88742  0.58339  Biso   1.000  C
  C84      1.0000 0.85614  0.89420  0.36082  Biso   1.000  C
  O11      1.0000 0.49893  0.84966  0.68525  Biso   1.000  O
  H83      1.0000 0.58260  0.90021  0.77849  Biso   1.000  H
  H84      1.0000 0.54440  0.83841  0.82300  Biso   1.000  H
  C85      1.0000 0.73112  0.92586  0.69068  Biso   1.000  C
  H85      1.0000 0.53988  0.69700  0.91289  Biso   1.000  H
  H86      1.0000 0.65551  0.69481  0.90190  Biso   1.000  H
  H87      1.0000 0.60276  0.75789  0.91895  Biso   1.000  H
  O12      1.0000 0.85084  0.87421  0.52197  Biso   1.000  O
  H88      1.0000 0.95433  0.83440  0.60850  Biso   1.000  H
  H89      1.0000 0.91434  0.89680  0.64909  Biso   1.000  H
  H90      1.0000 0.91982  0.69591  0.47581  Biso   1.000  H
  H91      1.0000 0.80577  0.69641  0.49479  Biso   1.000  H
  H92      1.0000 0.86079  0.75821  0.47460  Biso   1.000  H
  H93      1.0000 0.48168  0.99449  0.26551  Biso   1.000  H
  H94      1.0000 0.51679  0.94011  0.20209  Biso   1.000  H
  H95      1.0000 0.41509  0.93537  0.25082  Biso   1.000  H
  C86      1.0000 0.28377  0.91971  0.56520  Biso   1.000  C
  C87      1.0000 0.41456  0.88409  0.67676  Biso   1.000  C
  C88      1.0000 0.90054  0.91684  0.28356  Biso   1.000  C
  C89      1.0000 0.90462  0.89748  0.45227  Biso   1.000  C
  H96      1.0000 0.79800  0.94307  0.69096  Biso   1.000  H
  H97      1.0000 0.69981  0.94221  0.74589  Biso   1.000  H
  C90      1.0000 0.67146  0.94521  0.59994  Biso   1.000  C
  H98      1.0000 0.25366  0.92189  0.50278  Biso   1.000  H
  C91      1.0000 0.24130  0.94899  0.63960  Biso   1.000  C
  C92      1.0000 0.37120  0.91237  0.75017  Biso   1.000  C
  H99      1.0000 0.86843  0.91429  0.22207  Biso   1.000  H
  C93      1.0000 0.99400  0.94380  0.29769  Biso   1.000  C
  C94      1.0000 0.99650  0.92362  0.46511  Biso   1.000  C
  H100     1.0000 0.66899  0.98930  0.59673  Biso   1.000  H
  H101     1.0000 0.70257  0.92941  0.54508  Biso   1.000  H
  H102     1.0000 0.60463  0.92918  0.60022  Biso   1.000  H
  H103     1.0000 0.18259  0.97140  0.62726  Biso   1.000  H
  C95      1.0000 0.28381  0.94548  0.73041  Biso   1.000  C
  H104     1.0000 0.40002  0.90960  0.81309  Biso   1.000  H
  H105     1.0000 0.02479  0.95969  0.24532  Biso   1.000  H
  C96      1.0000 0.04144  0.94708  0.38721  Biso   1.000  C
  H106     1.0000 0.02912  0.92567  0.52646  Biso   1.000  H
  H107     1.0000 0.25406  0.96557  0.77999  Biso   1.000  H
  H108     1.0000 0.10445  0.96530  0.39591  Biso   1.000  H
  C97      1.0000 0.23111  0.57412  0.19068  Biso   1.000  C
  C98      1.0000 0.17145  0.55477  0.09994  Biso   1.000  C
  C99      1.0000 0.23829  0.64321  0.19938  Biso   1.000  C
  H109     1.0000 0.29799  0.55691  0.19097  Biso   1.000  H
  H110     1.0000 0.19980  0.55782  0.24590  Biso   1.000  H
  H111     1.0000 0.16898  0.51068  0.09673  Biso   1.000  H
  H112     1.0000 0.20264  0.57062  0.04508  Biso   1.000  H
  H113     1.0000 0.10462  0.57080  0.10023  Biso   1.000  H
  C100     1.0000 0.16110  0.67541  0.23791  Biso   1.000  C
  C101     1.0000 0.31643  0.67496  0.16257  Biso   1.000  C
  C102     1.0000 0.06912  0.64308  0.26587  Biso   1.000  C
  C103     1.0000 0.16147  0.73967  0.23890  Biso   1.000  C
  C104     1.0000 0.39518  0.64030  0.11357  Biso   1.000  C
  C105     1.0000 0.31687  0.73945  0.16058  Biso   1.000  C
  H114     1.0000 0.08259  0.59981  0.27850  Biso   1.000  H
  H115     1.0000 0.04439  0.66161  0.32301  Biso   1.000  H
  O13      1.0000 0.99893  0.65032  0.18533  Biso   1.000  O
  C106     1.0000 0.23897  0.77101  0.20053  Biso   1.000  C
  C107     1.0000 0.07671  0.77324  0.28178  Biso   1.000  C
  O14      1.0000 0.35083  0.62581  0.02197  Biso   1.000  O
  H116     1.0000 0.45432  0.66557  0.10850  Biso   1.000  H
  H117     1.0000 0.41434  0.60318  0.14909  Biso   1.000  H
  C108     1.0000 0.39501  0.77388  0.11043  Biso   1.000  C
  C109     1.0000 0.91463  0.61589  0.17677  Biso   1.000  C
  C110     1.0000 0.23323  0.83969  0.19132  Biso   1.000  C
  H118     1.0000 0.06822  0.81318  0.25132  Biso   1.000  H
  H119     1.0000 0.01511  0.75019  0.26851  Biso   1.000  H
  C111     1.0000 0.09537  0.78157  0.38842  Biso   1.000  C
  C112     1.0000 0.40461  0.60254  0.95228  Biso   1.000  C
  H120     1.0000 0.45820  0.75211  0.11949  Biso   1.000  H
  H121     1.0000 0.40407  0.81427  0.13968  Biso   1.000  H
  C113     1.0000 0.36788  0.78148  0.00428  Biso   1.000  C
  C114     1.0000 0.87059  0.61261  0.08339  Biso   1.000  C
  C115     1.0000 0.87119  0.58760  0.25018  Biso   1.000  C
  O15      1.0000 0.18262  0.84952  0.10087  Biso   1.000  O
  H122     1.0000 0.19633  0.85731  0.24211  Biso   1.000  H
  H123     1.0000 0.29957  0.85768  0.19418  Biso   1.000  H
  H124     1.0000 0.03987  0.80298  0.41289  Biso   1.000  H
  H125     1.0000 0.15550  0.80521  0.40191  Biso   1.000  H
  H126     1.0000 0.10276  0.74209  0.41903  Biso   1.000  H
  C116     1.0000 0.35614  0.60577  0.86082  Biso   1.000  C
  C117     1.0000 0.49649  0.57635  0.96512  Biso   1.000  C
  H127     1.0000 0.41982  0.80407  0.97582  Biso   1.000  H
  H128     1.0000 0.30584  0.80357  0.99479  Biso   1.000  H
  H129     1.0000 0.36078  0.74181  0.97460  Biso   1.000  H
  O16      1.0000 0.92137  0.64321  0.01890  Biso   1.000  O
  C118     1.0000 0.78377  0.58027  0.06520  Biso   1.000  C
  C119     1.0000 0.78380  0.55449  0.23042  Biso   1.000  C
  H130     1.0000 0.90001  0.59038  0.31309  Biso   1.000  H
  C120     1.0000 0.16769  0.90664  0.06463  Biso   1.000  C
  O17      1.0000 0.26554  0.63292  0.85883  Biso   1.000  O
  C121     1.0000 0.40054  0.58314  0.78364  Biso   1.000  C
  H131     1.0000 0.52911  0.57430  0.02647  Biso   1.000  H
  C122     1.0000 0.54143  0.55290  0.88722  Biso   1.000  C
  C123     1.0000 0.88262  0.65009  0.92317  Biso   1.000  C
  H132     1.0000 0.75373  0.57808  0.00278  Biso   1.000  H
  C124     1.0000 0.74129  0.55099  0.13960  Biso   1.000  C
  H133     1.0000 0.75406  0.53441  0.27999  Biso   1.000  H
  C125     1.0000 0.18462  0.96056  0.11442  Biso   1.000  C
  C126     1.0000 0.13062  0.90805  0.96868  Biso   1.000  C
  C127     1.0000 0.20542  0.63870  0.77172  Biso   1.000  C
  H134     1.0000 0.36842  0.58569  0.72207  Biso   1.000  H
  C128     1.0000 0.49399  0.55618  0.79769  Biso   1.000  C
  H135     1.0000 0.60445  0.53468  0.89592  Biso   1.000  H
  C129     1.0000 0.96299  0.68233  0.87409  Biso   1.000  C
  H136     1.0000 0.82172  0.67450  0.91989  Biso   1.000  H
  H137     1.0000 0.86800  0.61037  0.89378  Biso   1.000  H
  H138     1.0000 0.68258  0.52858  0.12726  Biso   1.000  H
  H139     1.0000 0.21041  0.96001  0.17827  Biso   1.000  H
  C130     1.0000 0.16267  0.01553  0.06863  Biso   1.000  C
  O18      1.0000 0.12222  0.85194  0.92688  Biso   1.000  O
  C131     1.0000 0.10862  0.96302  0.92510  Biso   1.000  C
  C132     1.0000 0.11779  0.67609  0.79869  Biso   1.000  C
  H140     1.0000 0.18400  0.59872  0.74719  Biso   1.000  H
  H141     1.0000 0.24139  0.65970  0.72329  Biso   1.000  H
  H142     1.0000 0.52485  0.54028  0.74533  Biso   1.000  H
  C133     1.0000 0.96790  0.74628  0.87352  Biso   1.000  C
  C134     1.0000 0.03917  0.64717  0.83878  Biso   1.000  C
  C135     1.0000 0.12423  0.01690  0.97589  Biso   1.000  C
  H143     1.0000 0.17448  0.05228  0.10180  Biso   1.000  H
  C136     1.0000 0.06058  0.84351  0.84121  Biso   1.000  C
  H144     1.0000 0.08319  0.96420  0.86104  Biso   1.000  H
  C137     1.0000 0.12319  0.74022  0.79584  Biso   1.000  C
  C138     1.0000 0.89073  0.78408  0.92089  Biso   1.000  C
  C139     1.0000 0.04832  0.77492  0.83279  Biso   1.000  C
  C140     1.0000 0.03639  0.57799  0.84591  Biso   1.000  C
  H145     1.0000 0.10827  0.05438  0.94643  Biso   1.000  H
  H146     1.0000 0.99628  0.86351  0.84549  Biso   1.000  H
  H147     1.0000 0.09228  0.86000  0.78628  Biso   1.000  H
  C141     1.0000 0.21000  0.77019  0.75261  Biso   1.000  C
  H148     1.0000 0.88112  0.82279  0.88658  Biso   1.000  H
  H149     1.0000 0.82727  0.76231  0.91611  Biso   1.000  H
  C142     1.0000 0.92052  0.79719  0.02518  Biso   1.000  C
  C143     1.0000 0.98258  0.54939  0.75810  Biso   1.000  C
  H150     1.0000 0.10442  0.56228  0.85340  Biso   1.000  H
  H151     1.0000 0.00291  0.56629  0.90270  Biso   1.000  H
  H152     1.0000 0.27031  0.74660  0.76937  Biso   1.000  H
  H153     1.0000 0.21959  0.81118  0.77907  Biso   1.000  H
  C144     1.0000 0.19320  0.77429  0.64418  Biso   1.000  C
  H154     1.0000 0.86927  0.82138  0.05200  Biso   1.000  H
  H155     1.0000 0.98252  0.81960  0.03032  Biso   1.000  H
  H156     1.0000 0.92859  0.75907  0.05978  Biso   1.000  H
  H157     1.0000 0.98167  0.50549  0.76552  Biso   1.000  H
  H158     1.0000 0.91509  0.56460  0.75082  Biso   1.000  H
  H159     1.0000 0.01678  0.55991  0.70210  Biso   1.000  H
  H160     1.0000 0.24995  0.79392  0.61864  Biso   1.000  H
  H161     1.0000 0.13393  0.79801  0.62741  Biso   1.000  H
  H162     1.0000 0.18531  0.73362  0.61771  Biso   1.000  H
  C145     1.0000 0.76890  0.42588  0.80931  Biso   1.000  C
  C146     1.0000 0.76172  0.35674  0.80060  Biso   1.000  C
  H163     1.0000 0.70202  0.44309  0.80902  Biso   1.000  H
  H164     1.0000 0.80021  0.44218  0.75409  Biso   1.000  H
  C147     1.0000 0.82856  0.44519  0.90005  Biso   1.000  C
  C148     1.0000 0.68358  0.32500  0.83741  Biso   1.000  C
  C149     1.0000 0.83891  0.32459  0.76208  Biso   1.000  C
  H165     1.0000 0.83103  0.48927  0.90326  Biso   1.000  H
  H166     1.0000 0.79737  0.42938  0.95490  Biso   1.000  H
  H167     1.0000 0.89539  0.42920  0.89976  Biso   1.000  H
  C150     1.0000 0.68307  0.26055  0.83941  Biso   1.000  C
  C151     1.0000 0.60484  0.35970  0.88642  Biso   1.000  C
  C152     1.0000 0.83854  0.26033  0.76108  Biso   1.000  C
  C153     1.0000 0.93089  0.35692  0.73412  Biso   1.000  C
  C154     1.0000 0.76097  0.22895  0.79946  Biso   1.000  C
  C155     1.0000 0.60500  0.22608  0.88956  Biso   1.000  C
  O19      1.0000 0.64918  0.37419  0.97802  Biso   1.000  O
  H168     1.0000 0.54569  0.33438  0.89149  Biso   1.000  H
  H169     1.0000 0.58567  0.39678  0.85090  Biso   1.000  H
  C156     1.0000 0.92331  0.22676  0.71821  Biso   1.000  C
  H170     1.0000 0.91742  0.40019  0.72149  Biso   1.000  H
  H171     1.0000 0.95562  0.33839  0.67698  Biso   1.000  H
  O20      1.0000 0.00108  0.34964  0.81466  Biso   1.000  O
  C157     1.0000 0.76678  0.16031  0.80867  Biso   1.000  C
  H172     1.0000 0.54181  0.24789  0.88050  Biso   1.000  H
  H173     1.0000 0.59587  0.18568  0.86031  Biso   1.000  H
  C158     1.0000 0.63213  0.21852  0.99571  Biso   1.000  C
  C159     1.0000 0.59540  0.39746  0.04771  Biso   1.000  C
  H174     1.0000 0.93180  0.18682  0.74867  Biso   1.000  H
  H175     1.0000 0.98490  0.24981  0.73148  Biso   1.000  H
  C160     1.0000 0.90464  0.21838  0.61156  Biso   1.000  C
  C161     1.0000 0.08539  0.38411  0.82322  Biso   1.000  C
  O21      1.0000 0.81740  0.15048  0.89912  Biso   1.000  O
  H176     1.0000 0.80368  0.14269  0.75787  Biso   1.000  H
  H177     1.0000 0.70037  0.14228  0.80581  Biso   1.000  H
  H178     1.0000 0.58020  0.19588  0.02417  Biso   1.000  H
  H179     1.0000 0.69417  0.19638  0.00520  Biso   1.000  H
  H180     1.0000 0.63923  0.25819  0.02538  Biso   1.000  H
  C162     1.0000 0.64388  0.39423  0.13916  Biso   1.000  C
  C163     1.0000 0.50352  0.42360  0.03487  Biso   1.000  C
  H181     1.0000 0.96014  0.19698  0.58710  Biso   1.000  H
  H182     1.0000 0.84451  0.19479  0.59808  Biso   1.000  H
  H183     1.0000 0.89718  0.25791  0.58096  Biso   1.000  H
  C164     1.0000 0.12943  0.38739  0.91660  Biso   1.000  C
  C165     1.0000 0.12882  0.41240  0.74981  Biso   1.000  C
  C166     1.0000 0.83232  0.09332  0.93536  Biso   1.000  C
  O22      1.0000 0.73448  0.36708  0.14116  Biso   1.000  O
  C167     1.0000 0.59947  0.41686  0.21635  Biso   1.000  C
  H184     1.0000 0.47090  0.42570  0.97345  Biso   1.000  H
  C168     1.0000 0.45858  0.44710  0.11277  Biso   1.000  C
  O23      1.0000 0.07857  0.35674  0.98108  Biso   1.000  O
  C169     1.0000 0.21617  0.41973  0.93479  Biso   1.000  C
  C170     1.0000 0.21621  0.44551  0.76957  Biso   1.000  C
  H185     1.0000 0.10000  0.40962  0.68689  Biso   1.000  H
  C171     1.0000 0.81539  0.03944  0.88557  Biso   1.000  C
  C172     1.0000 0.86939  0.09195  0.03130  Biso   1.000  C
  C173     1.0000 0.79460  0.36130  0.22826  Biso   1.000  C
  H186     1.0000 0.63159  0.41431  0.27791  Biso   1.000  H
  C174     1.0000 0.50602  0.44378  0.20230  Biso   1.000  C
  H187     1.0000 0.39557  0.46527  0.10407  Biso   1.000  H
  C175     1.0000 0.11739  0.34991  0.07682  Biso   1.000  C
  H188     1.0000 0.24629  0.42192  0.99721  Biso   1.000  H
  C176     1.0000 0.25872  0.44901  0.86038  Biso   1.000  C
  H189     1.0000 0.24588  0.46559  0.71999  Biso   1.000  H
  H190     1.0000 0.78960  0.03999  0.82172  Biso   1.000  H
  C177     1.0000 0.83727  0.98447  0.93136  Biso   1.000  C
  O24      1.0000 0.87779  0.14806  0.07311  Biso   1.000  O
  C178     1.0000 0.89139  0.03694  0.07489  Biso   1.000  C
  C179     1.0000 0.88222  0.32386  0.20130  Biso   1.000  C
  H191     1.0000 0.81602  0.40128  0.25280  Biso   1.000  H
  H192     1.0000 0.75862  0.34030  0.27670  Biso   1.000  H
  H193     1.0000 0.47516  0.45972  0.25466  Biso   1.000  H
  C180     1.0000 0.03702  0.31767  0.12590  Biso   1.000  C
  H194     1.0000 0.17829  0.32550  0.08010  Biso   1.000  H
  H195     1.0000 0.13201  0.38958  0.10621  Biso   1.000  H
  H196     1.0000 0.31742  0.47138  0.87265  Biso   1.000  H
  H197     1.0000 0.82553  0.94772  0.89819  Biso   1.000  H
  C181     1.0000 0.87578  0.98310  0.02410  Biso   1.000  C
  C182     1.0000 0.93943  0.15649  0.15878  Biso   1.000  C
  H198     1.0000 0.91682  0.03580  0.13895  Biso   1.000  H
  C183     1.0000 0.87682  0.25973  0.20415  Biso   1.000  C
  C184     1.0000 0.96077  0.35283  0.16121  Biso   1.000  C
  C185     1.0000 0.03211  0.25372  0.12647  Biso   1.000  C
  H199     1.0000 0.89167  0.94562  0.05356  Biso   1.000  H
  C186     1.0000 0.95169  0.22503  0.16720  Biso   1.000  C
  H200     1.0000 0.90773  0.14000  0.21371  Biso   1.000  H
  H201     1.0000 0.00374  0.13649  0.15450  Biso   1.000  H
  C187     1.0000 0.79001  0.22981  0.24738  Biso   1.000  C
  C188     1.0000 0.96362  0.42196  0.15407  Biso   1.000  C
  C189     1.0000 0.10929  0.21588  0.07910  Biso   1.000  C
  H202     1.0000 0.72969  0.25340  0.23055  Biso   1.000  H
  H203     1.0000 0.78042  0.18878  0.22092  Biso   1.000  H
  C190     1.0000 0.80681  0.22571  0.35581  Biso   1.000  C
  H204     1.0000 0.89560  0.43767  0.14658  Biso   1.000  H
  H205     1.0000 0.99710  0.43371  0.09729  Biso   1.000  H
  C191     1.0000 0.01744  0.45061  0.24189  Biso   1.000  C
  C192     1.0000 0.07949  0.20281  0.97481  Biso   1.000  C
  H206     1.0000 0.11889  0.17721  0.11341  Biso   1.000  H
  H207     1.0000 0.17274  0.23769  0.08388  Biso   1.000  H
  H208     1.0000 0.75007  0.20608  0.38135  Biso   1.000  H
  H209     1.0000 0.86609  0.20199  0.37258  Biso   1.000  H
  H210     1.0000 0.81470  0.26638  0.38228  Biso   1.000  H
  H211     1.0000 0.98323  0.44009  0.29789  Biso   1.000  H
  H212     1.0000 0.01827  0.49451  0.23447  Biso   1.000  H
  H213     1.0000 0.08493  0.43540  0.24917  Biso   1.000  H
  H214     1.0000 0.13074  0.17858  0.94798  Biso   1.000  H
  H215     1.0000 0.01749  0.18040  0.96967  Biso   1.000  H
  H216     1.0000 0.07142  0.24088  0.94021  Biso   1.000  H
  Ne1      1.0000 0.36160  0.20852  0.48620  Biso   1.000  Ne
  He1      1.0000 0.21619  0.22524  0.61718  Biso   1.000  He
  He2      1.0000 0.44981  0.09674  0.49789  Biso   1.000  He
  He3      1.0000 0.44104  0.29731  0.37466  Biso   1.000  He
  Ar1      1.0000 0.35851  0.20904  0.48347  Biso   1.000  Ar
  Ne2      1.0000 0.13841  0.70852  0.01379  Biso   1.000  Ne
  He4      1.0000 0.05397  0.80458  0.12963  Biso   1.000  He
  He5      1.0000 0.20844  0.55579  0.92746  Biso   1.000  He
  He6      1.0000 0.28392  0.72525  0.88277  Biso   1.000  He
  Ar2      1.0000 0.14148  0.70903  0.01650  Biso   1.000  Ar
  Ne3      1.0000 0.63841  0.79147  0.51378  Biso   1.000  Ne
  He7      1.0000 0.55503  0.69695  0.62873  Biso   1.000  He
  He8      1.0000 0.50864  0.93507  0.52065  Biso   1.000  He
  He9      1.0000 0.85852  0.78480  0.35534  Biso   1.000  He
  Ar3      1.0000 0.64149  0.79096  0.51650  Biso   1.000  Ar
  Ne4      1.0000 0.86160  0.29147  0.98620  Biso   1.000  Ne
  He10     1.0000 0.72340  0.15634  0.11412  Biso   1.000  He
  He11     1.0000 0.82962  0.40864  0.05980  Biso   1.000  He
  He12     1.0000 0.97316  0.14771  0.85699  Biso   1.000  He
  Ar4      1.0000 0.85851  0.29096  0.98347  Biso   1.000  Ar
