data_image0
_cell_length_a       12.235
_cell_length_b       14.1
_cell_length_c       16.955
_cell_angle_alpha    86.44
_cell_angle_beta     79.56
_cell_angle_gamma    78.68

_symmetry_space_group_name_H-M    "P 1"
_symmetry_int_tables_number       1

loop_
  _symmetry_equiv_pos_as_xyz
  'x, y, z'

loop_
  _atom_site_label
  _atom_site_occupancy
  _atom_site_fract_x
  _atom_site_fract_y
  _atom_site_fract_z
  _atom_site_thermal_displace_type
  _atom_site_B_iso_or_equiv
  _atom_site_type_symbol
  C1       1.0000 0.57531  0.46716  0.57811  Biso   1.000  C
  C2       1.0000 0.49450  0.40951  0.60001  Biso   1.000  C
  C3       1.0000 0.66988  0.43934  0.52082  Biso   1.000  C
  H1       1.0000 0.56546  0.52602  0.60271  Biso   1.000  H
  C4       1.0000 0.50672  0.32043  0.56419  Biso   1.000  C
  O1       1.0000 0.39909  0.43523  0.65767  Biso   1.000  O
  C5       1.0000 0.68290  0.35151  0.48428  Biso   1.000  C
  C6       1.0000 0.75847  0.50283  0.50138  Biso   1.000  C
  C7       1.0000 0.42102  0.25581  0.58711  Biso   1.000  C
  C8       1.0000 0.60156  0.29323  0.50558  Biso   1.000  C
  C9       1.0000 0.38630  0.52725  0.69210  Biso   1.000  C
  O2       1.0000 0.77845  0.32682  0.42609  Biso   1.000  O
  H2       1.0000 0.72236  0.56999  0.50918  Biso   1.000  H
  H3       1.0000 0.79400  0.49594  0.44552  Biso   1.000  H
  C10      1.0000 0.84728  0.47549  0.55382  Biso   1.000  C
  H4       1.0000 0.34800  0.29505  0.60757  Biso   1.000  H
  H5       1.0000 0.41353  0.22426  0.53960  Biso   1.000  H
  C11      1.0000 0.45355  0.17936  0.65011  Biso   1.000  C
  H6       1.0000 0.61108  0.23491  0.48020  Biso   1.000  H
  H7       1.0000 0.44689  0.52691  0.72192  Biso   1.000  H
  H8       1.0000 0.39040  0.57682  0.64999  Biso   1.000  H
  C12      1.0000 0.27538  0.54866  0.74640  Biso   1.000  C
  C13      1.0000 0.79326  0.23739  0.38781  Biso   1.000  C
  C14      1.0000 0.84163  0.52093  0.62521  Biso   1.000  C
  C15      1.0000 0.93912  0.40025  0.53252  Biso   1.000  C
  C16      1.0000 0.41203  0.19398  0.73068  Biso   1.000  C
  C17      1.0000 0.52932  0.09301  0.62797  Biso   1.000  C
  Br1      1.0000 0.27149  0.46671  0.84257  Biso   1.000  Br
  H9       1.0000 0.26034  0.61587  0.76140  Biso   1.000  H
  H10      1.0000 0.21623  0.53940  0.71820  Biso   1.000  H
  H11      1.0000 0.73047  0.23748  0.36111  Biso   1.000  H
  H12      1.0000 0.86216  0.22883  0.34929  Biso   1.000  H
  H13      1.0000 0.79730  0.18553  0.42723  Biso   1.000  H
  C18      1.0000 0.92350  0.49296  0.67267  Biso   1.000  C
  O3       1.0000 0.75554  0.60093  0.64471  Biso   1.000  O
  H14      1.0000 0.94642  0.36922  0.48452  Biso   1.000  H
  C19      1.0000 0.01944  0.37094  0.58117  Biso   1.000  C
  H15      1.0000 0.36124  0.25053  0.74628  Biso   1.000  H
  C20      1.0000 0.44453  0.12588  0.78858  Biso   1.000  C
  C21      1.0000 0.56296  0.02576  0.68640  Biso   1.000  C
  O4       1.0000 0.56607  0.08015  0.54692  Biso   1.000  O
  H16      1.0000 0.91869  0.52591  0.71940  Biso   1.000  H
  C22      1.0000 0.01228  0.41653  0.65227  Biso   1.000  C
  C23      1.0000 0.69874  0.60703  0.72252  Biso   1.000  C
  O5       1.0000 0.11066  0.29666  0.56341  Biso   1.000  O
  C24      1.0000 0.52235  0.04145  0.76728  Biso   1.000  C
  O6       1.0000 0.40573  0.13656  0.86999  Biso   1.000  O
  H17      1.0000 0.61374  0.96906  0.67099  Biso   1.000  H
  C25      1.0000 0.63940  0.99094  0.52370  Biso   1.000  C
  C26      1.0000 0.09604  0.38287  0.70770  Biso   1.000  C
  C27      1.0000 0.62287  0.69610  0.74328  Biso   1.000  C
  H18      1.0000 0.70909  0.55604  0.75948  Biso   1.000  H
  C28      1.0000 0.12298  0.24824  0.49028  Biso   1.000  C
  C29      1.0000 0.56604  0.96930  0.82949  Biso   1.000  C
  C30      1.0000 0.30251  0.20048  0.89441  Biso   1.000  C
  H19      1.0000 0.70889  0.98794  0.54002  Biso   1.000  H
  H20      1.0000 0.65091  0.99293  0.47900  Biso   1.000  H
  C31      1.0000 0.06845  0.29642  0.76038  Biso   1.000  C
  H21      1.0000 0.17121  0.36533  0.67609  Biso   1.000  H
  H22      1.0000 0.09684  0.43563  0.74160  Biso   1.000  H
  Br2      1.0000 0.52605  0.74966  0.66823  Biso   1.000  Br
  H23      1.0000 0.57558  0.68616  0.79440  Biso   1.000  H
  H24      1.0000 0.66725  0.74366  0.75090  Biso   1.000  H
  H25      1.0000 0.13019  0.29369  0.44600  Biso   1.000  H
  H26      1.0000 0.18945  0.19822  0.48512  Biso   1.000  H
  H27      1.0000 0.05765  0.22003  0.49040  Biso   1.000  H
  H28      1.0000 0.58033  0.90468  0.80868  Biso   1.000  H
  H29      1.0000 0.50832  0.97170  0.87719  Biso   1.000  H
  C32      1.0000 0.67350  0.98851  0.85229  Biso   1.000  C
  C33      1.0000 0.27126  0.19398  0.98338  Biso   1.000  C
  H30      1.0000 0.31021  0.26614  0.87749  Biso   1.000  H
  H31      1.0000 0.24359  0.18343  0.86969  Biso   1.000  H
  C34      1.0000 0.99058  0.31027  0.83147  Biso   1.000  C
  C35      1.0000 0.11687  0.20246  0.73878  Biso   1.000  C
  C36      1.0000 0.66739  0.05307  0.91187  Biso   1.000  C
  C37      1.0000 0.77883  0.94496  0.81317  Biso   1.000  C
  H32      1.0000 0.19485  0.22946  0.99988  Biso   1.000  H
  Br3      1.0000 0.37517  0.24691  0.03420  Biso   1.000  Br
  H33      1.0000 0.27291  0.12687  0.00048  Biso   1.000  H
  C38      1.0000 0.96543  0.23381  0.87941  Biso   1.000  C
  O7       1.0000 0.93866  0.40597  0.84851  Biso   1.000  O
  C39      1.0000 0.08995  0.12513  0.78708  Biso   1.000  C
  H34      1.0000 0.16823  0.19131  0.69108  Biso   1.000  H
  C40      1.0000 0.76533  0.07326  0.93137  Biso   1.000  C
  H35      1.0000 0.59720  0.08299  0.93886  Biso   1.000  H
  C41      1.0000 0.87585  0.96651  0.83279  Biso   1.000  C
  O8       1.0000 0.77993  0.88144  0.75468  Biso   1.000  O
  C42      1.0000 0.01326  0.13985  0.85787  Biso   1.000  C
  H36      1.0000 0.91511  0.24502  0.92747  Biso   1.000  H
  C43      1.0000 0.90421  0.42972  0.92849  Biso   1.000  C
  O9       1.0000 0.13491  0.03013  0.76848  Biso   1.000  O
  C44      1.0000 0.87055  0.03086  0.89261  Biso   1.000  C
  O10      1.0000 0.75940  0.14155  0.98980  Biso   1.000  O
  H37      1.0000 0.94609  0.93719  0.80538  Biso   1.000  H
  C45      1.0000 0.88731  0.83285  0.71520  Biso   1.000  C
  C46      1.0000 0.97840  0.05659  0.91061  Biso   1.000  C
  C47      1.0000 0.85206  0.53386  0.93107  Biso   1.000  C
  H38      1.0000 0.84969  0.39117  0.95446  Biso   1.000  H
  H39      1.0000 0.96854  0.41737  0.95620  Biso   1.000  H
  C48      1.0000 0.21716  0.01163  0.69810  Biso   1.000  C
  C49      1.0000 0.69630  0.12283  0.06557  Biso   1.000  C
  H40      1.0000 0.92880  0.79778  0.75408  Biso   1.000  H
  H41      1.0000 0.87665  0.78867  0.67771  Biso   1.000  H
  H42      1.0000 0.92885  0.87956  0.68706  Biso   1.000  H
  H43      1.0000 0.96671  0.07376  0.96640  Biso   1.000  H
  H44      1.0000 0.03910  0.00044  0.90239  Biso   1.000  H
  Br4      1.0000 0.95202  0.61796  0.88133  Biso   1.000  Br
  H45      1.0000 0.78657  0.54414  0.90461  Biso   1.000  H
  H46      1.0000 0.82564  0.55132  0.98668  Biso   1.000  H
  H47      1.0000 0.24307  0.94308  0.69312  Biso   1.000  H
  H48      1.0000 0.27979  0.04205  0.70122  Biso   1.000  H
  H49      1.0000 0.18418  0.03724  0.65209  Biso   1.000  H
  C50      1.0000 0.70034  0.19167  0.12287  Biso   1.000  C
  Br5      1.0000 0.84300  0.21987  0.13181  Biso   1.000  Br
  H50      1.0000 0.65966  0.17560  0.17567  Biso   1.000  H
  Br6      1.0000 0.67333  0.30503  0.10487  Biso   1.000  Br
  C51      1.0000 0.42468  0.53288  0.42189  Biso   1.000  C
  C52      1.0000 0.33011  0.56071  0.47918  Biso   1.000  C
  C53      1.0000 0.50549  0.59053  0.39999  Biso   1.000  C
  H51      1.0000 0.43445  0.47403  0.39729  Biso   1.000  H
  C54      1.0000 0.24152  0.49721  0.49862  Biso   1.000  C
  C55      1.0000 0.31709  0.64854  0.51572  Biso   1.000  C
  C56      1.0000 0.49327  0.67961  0.43581  Biso   1.000  C
  O11      1.0000 0.60091  0.56482  0.34227  Biso   1.000  O
  C57      1.0000 0.15272  0.52448  0.44618  Biso   1.000  C
  H52      1.0000 0.27756  0.42999  0.49082  Biso   1.000  H
  H53      1.0000 0.20599  0.50411  0.55448  Biso   1.000  H
  C58      1.0000 0.39834  0.70682  0.49442  Biso   1.000  C
  O12      1.0000 0.22145  0.67322  0.57391  Biso   1.000  O
  C59      1.0000 0.57897  0.74424  0.41289  Biso   1.000  C
  C60      1.0000 0.61369  0.47280  0.30790  Biso   1.000  C
  C61      1.0000 0.15827  0.47911  0.37479  Biso   1.000  C
  C62      1.0000 0.06078  0.59979  0.46748  Biso   1.000  C
  H54      1.0000 0.38891  0.76514  0.51980  Biso   1.000  H
  C63      1.0000 0.20673  0.76265  0.61219  Biso   1.000  C
  H55      1.0000 0.65201  0.70499  0.39237  Biso   1.000  H
  H56      1.0000 0.58646  0.77579  0.46040  Biso   1.000  H
  C64      1.0000 0.54635  0.82068  0.34989  Biso   1.000  C
  H57      1.0000 0.55310  0.47314  0.27808  Biso   1.000  H
  H58      1.0000 0.60959  0.42323  0.35001  Biso   1.000  H
  C65      1.0000 0.72461  0.45138  0.25360  Biso   1.000  C
  O13      1.0000 0.24436  0.39911  0.35529  Biso   1.000  O
  C66      1.0000 0.07651  0.50709  0.32727  Biso   1.000  C
  H59      1.0000 0.05348  0.63082  0.51548  Biso   1.000  H
  C67      1.0000 0.98055  0.62911  0.41883  Biso   1.000  C
  H60      1.0000 0.26954  0.76249  0.63889  Biso   1.000  H
  H61      1.0000 0.13783  0.77121  0.65071  Biso   1.000  H
  H62      1.0000 0.20269  0.81452  0.57277  Biso   1.000  H
  C68      1.0000 0.58796  0.80607  0.26932  Biso   1.000  C
  C69      1.0000 0.47068  0.90703  0.37197  Biso   1.000  C
  Br7      1.0000 0.72842  0.53334  0.15743  Biso   1.000  Br
  H63      1.0000 0.73965  0.38418  0.23860  Biso   1.000  H
  H64      1.0000 0.78378  0.46057  0.28180  Biso   1.000  H
  C70      1.0000 0.30116  0.39302  0.27748  Biso   1.000  C
  H65      1.0000 0.08130  0.47414  0.28060  Biso   1.000  H
  C71      1.0000 0.98773  0.58352  0.34767  Biso   1.000  C
  O14      1.0000 0.88933  0.70338  0.43658  Biso   1.000  O
  H66      1.0000 0.63875  0.74952  0.25372  Biso   1.000  H
  C72      1.0000 0.55546  0.87417  0.21142  Biso   1.000  C
  C73      1.0000 0.43695  0.97428  0.31359  Biso   1.000  C
  O15      1.0000 0.43392  0.91989  0.45308  Biso   1.000  O
  C74      1.0000 0.37704  0.30395  0.25672  Biso   1.000  C
  H67      1.0000 0.29090  0.44401  0.24052  Biso   1.000  H
  C75      1.0000 0.90387  0.61718  0.29230  Biso   1.000  C
  C76      1.0000 0.87709  0.75180  0.50972  Biso   1.000  C
  C77      1.0000 0.47764  0.95860  0.23272  Biso   1.000  C
  O16      1.0000 0.59426  0.86349  0.13001  Biso   1.000  O
  H68      1.0000 0.38625  0.03099  0.32901  Biso   1.000  H
  C78      1.0000 0.36051  0.00910  0.47630  Biso   1.000  C
  Br8      1.0000 0.47386  0.25039  0.33177  Biso   1.000  Br
  H69      1.0000 0.42440  0.31389  0.20560  Biso   1.000  H
  H70      1.0000 0.33266  0.25639  0.24910  Biso   1.000  H
  C79      1.0000 0.93162  0.70362  0.23962  Biso   1.000  C
  H71      1.0000 0.82878  0.63472  0.32391  Biso   1.000  H
  H72      1.0000 0.90323  0.56442  0.25840  Biso   1.000  H
  H73      1.0000 0.86990  0.70629  0.55400  Biso   1.000  H
  H74      1.0000 0.81062  0.80183  0.51488  Biso   1.000  H
  H75      1.0000 0.94242  0.78002  0.50960  Biso   1.000  H
  C80      1.0000 0.43395  0.03075  0.17051  Biso   1.000  C
  C81      1.0000 0.69748  0.79957  0.10559  Biso   1.000  C
  H76      1.0000 0.29102  0.01210  0.45998  Biso   1.000  H
  H77      1.0000 0.34908  0.00711  0.52100  Biso   1.000  H
  C82      1.0000 0.00941  0.68978  0.16853  Biso   1.000  C
  C83      1.0000 0.88320  0.79759  0.26122  Biso   1.000  C
  C84      1.0000 0.32641  0.01154  0.14771  Biso   1.000  C
  H78      1.0000 0.41966  0.09537  0.19132  Biso   1.000  H
  H79      1.0000 0.49167  0.02835  0.12281  Biso   1.000  H
  C85      1.0000 0.72873  0.80606  0.01662  Biso   1.000  C
  H80      1.0000 0.68977  0.73391  0.12251  Biso   1.000  H
  H81      1.0000 0.75632  0.81661  0.13031  Biso   1.000  H
  C86      1.0000 0.03458  0.76616  0.12059  Biso   1.000  C
  O17      1.0000 0.06133  0.59408  0.15149  Biso   1.000  O
  H82      1.0000 0.83176  0.80873  0.30892  Biso   1.000  H
  C87      1.0000 0.91012  0.87492  0.21292  Biso   1.000  C
  C88      1.0000 0.33261  0.94698  0.08807  Biso   1.000  C
  C89      1.0000 0.22116  0.05509  0.18683  Biso   1.000  C
  H83      1.0000 0.80514  0.77059  0.00012  Biso   1.000  H
  Br9      1.0000 0.62482  0.75314  0.96580  Biso   1.000  Br
  H84      1.0000 0.72700  0.87317  0.99952  Biso   1.000  H
  H85      1.0000 0.08489  0.75503  0.07247  Biso   1.000  H
  C90      1.0000 0.98681  0.86020  0.14213  Biso   1.000  C
  C91      1.0000 0.09577  0.57033  0.07151  Biso   1.000  C
  O18      1.0000 0.86516  0.96992  0.23152  Biso   1.000  O
  C92      1.0000 0.23468  0.92679  0.06857  Biso   1.000  C
  H86      1.0000 0.40280  0.91706  0.06108  Biso   1.000  H
  C93      1.0000 0.12414  0.03353  0.16721  Biso   1.000  C
  O19      1.0000 0.22007  0.11853  0.24532  Biso   1.000  O
  C94      1.0000 0.02159  0.94346  0.08939  Biso   1.000  C
  C95      1.0000 0.14787  0.46619  0.06887  Biso   1.000  C
  H87      1.0000 0.15032  0.60888  0.04548  Biso   1.000  H
  H88      1.0000 0.03137  0.58268  0.04380  Biso   1.000  H
  C96      1.0000 0.78291  0.98842  0.30190  Biso   1.000  C
  C97      1.0000 0.12936  0.96919  0.10739  Biso   1.000  C
  O20      1.0000 0.24059  0.85850  0.01020  Biso   1.000  O
  H89      1.0000 0.05381  0.06286  0.19462  Biso   1.000  H
  C98      1.0000 0.11268  0.16720  0.28480  Biso   1.000  C
  H90      1.0000 0.03327  0.92629  0.03360  Biso   1.000  H
  H91      1.0000 0.96098  0.99960  0.09761  Biso   1.000  H
  Br10     1.0000 0.04799  0.38209  0.11861  Biso   1.000  Br
  H92      1.0000 0.21341  0.45591  0.09539  Biso   1.000  H
  H93      1.0000 0.17435  0.44872  0.01332  Biso   1.000  H
  H94      1.0000 0.72020  0.95800  0.29878  Biso   1.000  H
  H95      1.0000 0.81581  0.96280  0.34791  Biso   1.000  H
  H96      1.0000 0.75691  0.05696  0.30688  Biso   1.000  H
  C99      1.0000 0.30361  0.87721  0.93443  Biso   1.000  C
  H97      1.0000 0.07110  0.20227  0.24592  Biso   1.000  H
  H98      1.0000 0.12334  0.21138  0.32229  Biso   1.000  H
  H99      1.0000 0.07116  0.12049  0.31287  Biso   1.000  H
  C100     1.0000 0.29965  0.80838  0.87713  Biso   1.000  C
  Br11     1.0000 0.15698  0.78017  0.86819  Biso   1.000  Br
  H100     1.0000 0.34034  0.82445  0.82427  Biso   1.000  H
  Br12     1.0000 0.32667  0.69494  0.89513  Biso   1.000  Br
  Ne1      1.0000 0.30546  0.68327  0.19497  Biso   1.000  Ne
  He1      1.0000 0.05644  0.95879  0.44880  Biso   1.000  He
  He2      1.0000 0.46672  0.50635  0.05293  Biso   1.000  He
  Ar1      1.0000 0.34191  0.68038  0.20330  Biso   1.000  Ar
  Ne2      1.0000 0.69451  0.31677  0.80502  Biso   1.000  Ne
  He3      1.0000 0.53245  0.49479  0.94784  Biso   1.000  He
  He4      1.0000 0.92968  0.05481  0.56425  Biso   1.000  He
  Ar2      1.0000 0.66767  0.31522  0.78846  Biso   1.000  Ar
