data_image0
_cell_length_a       11.871
_cell_length_b       17.419
_cell_length_c       20.145
_cell_angle_alpha    87.26
_cell_angle_beta     80.7
_cell_angle_gamma    74.95

_symmetry_space_group_name_H-M    "P 1"
_symmetry_int_tables_number       1

loop_
  _symmetry_equiv_pos_as_xyz
  'x, y, z'

loop_
  _atom_site_label
  _atom_site_occupancy
  _atom_site_fract_x
  _atom_site_fract_y
  _atom_site_fract_z
  _atom_site_thermal_displace_type
  _atom_site_B_iso_or_equiv
  _atom_site_type_symbol
  C1       1.0000 0.45706  0.40866  0.23587  Biso   1.000  C
  O1       1.0000 0.35102  0.45330  0.27762  Biso   1.000  O
  O2       1.0000 0.35105  0.45324  0.27757  Biso   1.000  O
  O3       1.0000 0.55613  0.40708  0.26539  Biso   1.000  O
  H1       1.0000 0.45078  0.34860  0.23038  Biso   1.000  H
  H2       1.0000 0.46499  0.43678  0.18692  Biso   1.000  H
  H3       1.0000 0.45089  0.34854  0.23038  Biso   1.000  H
  H4       1.0000 0.46501  0.43678  0.18687  Biso   1.000  H
  C2       1.0000 0.31025  0.53387  0.25810  Biso   1.000  C
  C3       1.0000 0.45705  0.40866  0.23592  Biso   1.000  C
  C4       1.0000 0.61565  0.46529  0.24729  Biso   1.000  C
  C5       1.0000 0.22690  0.55889  0.21826  Biso   1.000  C
  C6       1.0000 0.36009  0.58858  0.28848  Biso   1.000  C
  C7       1.0000 0.57611  0.54008  0.27898  Biso   1.000  C
  C8       1.0000 0.71808  0.44867  0.20221  Biso   1.000  C
  C9       1.0000 0.71818  0.44867  0.20216  Biso   1.000  C
  O4       1.0000 0.18611  0.49964  0.19130  Biso   1.000  O
  C10      1.0000 0.18164  0.63580  0.20428  Biso   1.000  C
  C11      1.0000 0.18166  0.63574  0.20428  Biso   1.000  C
  C12      1.0000 0.31514  0.66855  0.27002  Biso   1.000  C
  C13      1.0000 0.46083  0.56036  0.32742  Biso   1.000  C
  C14      1.0000 0.31515  0.66855  0.26997  Biso   1.000  C
  C15      1.0000 0.46085  0.56036  0.32737  Biso   1.000  C
  C16      1.0000 0.64374  0.59478  0.26107  Biso   1.000  C
  C17      1.0000 0.78600  0.50212  0.18592  Biso   1.000  C
  C18      1.0000 0.78604  0.50206  0.18587  Biso   1.000  C
  O5       1.0000 0.74831  0.37628  0.16801  Biso   1.000  O
  C19      1.0000 0.11655  0.45840  0.23808  Biso   1.000  C
  C20      1.0000 0.11657  0.45834  0.23808  Biso   1.000  C
  O6       1.0000 0.09778  0.65679  0.16298  Biso   1.000  O
  C21      1.0000 0.22783  0.69351  0.23059  Biso   1.000  C
  C22      1.0000 0.22785  0.69345  0.23059  Biso   1.000  C
  H5       1.0000 0.35187  0.71295  0.28758  Biso   1.000  H
  H6       1.0000 0.44626  0.50785  0.35428  Biso   1.000  H
  C23      1.0000 0.46517  0.61702  0.38340  Biso   1.000  C
  C24      1.0000 0.74774  0.57978  0.21509  Biso   1.000  C
  H7       1.0000 0.61306  0.65276  0.28411  Biso   1.000  H
  O7       1.0000 0.88958  0.48127  0.14220  Biso   1.000  O
  C25      1.0000 0.84621  0.31968  0.18451  Biso   1.000  C
  C26      1.0000 0.15434  0.36957  0.22339  Biso   1.000  C
  H8       1.0000 0.12792  0.46885  0.28868  Biso   1.000  H
  H9       1.0000 0.02471  0.48067  0.23270  Biso   1.000  H
  C27      1.0000 0.13269  0.66780  0.09532  Biso   1.000  C
  C28      1.0000 0.13271  0.66780  0.09527  Biso   1.000  C
  C29      1.0000 0.18418  0.77899  0.20709  Biso   1.000  C
  H10      1.0000 0.46453  0.67526  0.36228  Biso   1.000  H
  C30      1.0000 0.36015  0.62205  0.43592  Biso   1.000  C
  H11      1.0000 0.54455  0.59404  0.40539  Biso   1.000  H
  C31      1.0000 0.36016  0.62205  0.43587  Biso   1.000  C
  C32      1.0000 0.81701  0.64034  0.19291  Biso   1.000  C
  C33      1.0000 0.88799  0.50648  0.07520  Biso   1.000  C
  H12      1.0000 0.86463  0.33408  0.23250  Biso   1.000  H
  H13      1.0000 0.92134  0.31990  0.14618  Biso   1.000  H
  C34      1.0000 0.82519  0.23840  0.18672  Biso   1.000  C
  C35      1.0000 0.82523  0.23834  0.18667  Biso   1.000  C
  C36      1.0000 0.18599  0.33809  0.16248  Biso   1.000  C
  H14      1.0000 0.15515  0.32979  0.26620  Biso   1.000  H
  O8       1.0000 0.12580  0.75060  0.08068  Biso   1.000  O
  H15      1.0000 0.07559  0.64821  0.06690  Biso   1.000  H
  H16      1.0000 0.07561  0.64815  0.06690  Biso   1.000  H
  H17      1.0000 0.22255  0.63330  0.08099  Biso   1.000  H
  C37      1.0000 0.25467  0.79539  0.14261  Biso   1.000  C
  C38      1.0000 0.17165  0.83801  0.26630  Biso   1.000  C
  H18      1.0000 0.09603  0.78847  0.19527  Biso   1.000  H
  C39      1.0000 0.17176  0.83795  0.26630  Biso   1.000  C
  H19      1.0000 0.28170  0.64819  0.41379  Biso   1.000  H
  H20      1.0000 0.35866  0.56283  0.45388  Biso   1.000  H
  H21      1.0000 0.28173  0.64813  0.41379  Biso   1.000  H
  C40      1.0000 0.36146  0.67293  0.49528  Biso   1.000  C
  C41      1.0000 0.77567  0.68079  0.13169  Biso   1.000  C
  H22      1.0000 0.90951  0.61029  0.18089  Biso   1.000  H
  C42      1.0000 0.81362  0.69766  0.24910  Biso   1.000  C
  H23      1.0000 0.94953  0.46130  0.04321  Biso   1.000  H
  O9       1.0000 0.92066  0.58041  0.06192  Biso   1.000  O
  O10      1.0000 0.92070  0.58036  0.06187  Biso   1.000  O
  H24      1.0000 0.80009  0.51376  0.06368  Biso   1.000  H
  C43      1.0000 0.81102  0.20204  0.13411  Biso   1.000  C
  H25      1.0000 0.82129  0.20856  0.23501  Biso   1.000  H
  H26      1.0000 0.82139  0.20856  0.23496  Biso   1.000  H
  C44      1.0000 0.19746  0.38001  0.09588  Biso   1.000  C
  H27      1.0000 0.20597  0.27408  0.15981  Biso   1.000  H
  C45      1.0000 0.19757  0.37995  0.09588  Biso   1.000  C
  H28      1.0000 0.20605  0.27408  0.15981  Biso   1.000  H
  C46      1.0000 0.22768  0.77787  0.08290  Biso   1.000  C
  C47      1.0000 0.35613  0.82298  0.14070  Biso   1.000  C
  H29      1.0000 0.12469  0.81848  0.31172  Biso   1.000  H
  H30      1.0000 0.25867  0.83949  0.27470  Biso   1.000  H
  C48      1.0000 0.10566  0.92060  0.24658  Biso   1.000  C
  H31      1.0000 0.12470  0.81848  0.31167  Biso   1.000  H
  H32      1.0000 0.25875  0.83949  0.27470  Biso   1.000  H
  C49      1.0000 0.10577  0.92054  0.24658  Biso   1.000  C
  C50      1.0000 0.42312  0.64496  0.54860  Biso   1.000  C
  C51      1.0000 0.29862  0.75254  0.49311  Biso   1.000  C
  C52      1.0000 0.29863  0.75254  0.49306  Biso   1.000  C
  C53      1.0000 0.68098  0.75027  0.13411  Biso   1.000  C
  C54      1.0000 0.82072  0.64945  0.06811  Biso   1.000  C
  H33      1.0000 0.72238  0.72665  0.26721  Biso   1.000  H
  H34      1.0000 0.85930  0.74156  0.22827  Biso   1.000  H
  H35      1.0000 0.72247  0.72665  0.26721  Biso   1.000  H
  C55      1.0000 0.87024  0.65674  0.30931  Biso   1.000  C
  C56      1.0000 0.81837  0.22201  0.06112  Biso   1.000  C
  C57      1.0000 0.81841  0.22195  0.06107  Biso   1.000  C
  H36      1.0000 0.78912  0.14602  0.14588  Biso   1.000  H
  H37      1.0000 0.78914  0.14596  0.14588  Biso   1.000  H
  O11      1.0000 0.14425  0.34360  0.04990  Biso   1.000  O
  H38      1.0000 0.28946  0.37468  0.07651  Biso   1.000  H
  H39      1.0000 0.15171  0.44202  0.10282  Biso   1.000  H
  O12      1.0000 0.14434  0.34360  0.04990  Biso   1.000  O
  H40      1.0000 0.28955  0.37468  0.07651  Biso   1.000  H
  H41      1.0000 0.15175  0.44196  0.10277  Biso   1.000  H
  C58      1.0000 0.28952  0.79119  0.02379  Biso   1.000  C
  H42      1.0000 0.38168  0.83477  0.18748  Biso   1.000  H
  C59      1.0000 0.42225  0.83482  0.08280  Biso   1.000  C
  C60      1.0000 0.42236  0.83476  0.08280  Biso   1.000  C
  H43      1.0000 0.02422  0.91625  0.23169  Biso   1.000  H
  H44      1.0000 0.15895  0.94166  0.20458  Biso   1.000  H
  C61      1.0000 0.07502  0.98183  0.30428  Biso   1.000  C
  H45      1.0000 0.47184  0.58336  0.55021  Biso   1.000  H
  C62      1.0000 0.42199  0.69648  0.59970  Biso   1.000  C
  C63      1.0000 0.42210  0.69642  0.59970  Biso   1.000  C
  C64      1.0000 0.29756  0.80407  0.54427  Biso   1.000  C
  H46      1.0000 0.25086  0.77424  0.45186  Biso   1.000  H
  C65      1.0000 0.64438  0.78505  0.07611  Biso   1.000  C
  H47      1.0000 0.63636  0.77602  0.18209  Biso   1.000  H
  H48      1.0000 0.63647  0.77596  0.18209  Biso   1.000  H
  C66      1.0000 0.78634  0.68328  0.01011  Biso   1.000  C
  H49      1.0000 0.83584  0.60586  0.32450  Biso   1.000  H
  C67      1.0000 0.84633  0.71106  0.36831  Biso   1.000  C
  H50      1.0000 0.96456  0.63717  0.29356  Biso   1.000  H
  C68      1.0000 0.84634  0.71106  0.36826  Biso   1.000  C
  O13      1.0000 0.71952  0.22976  0.04190  Biso   1.000  O
  H51      1.0000 0.84347  0.27753  0.05402  Biso   1.000  H
  H52      1.0000 0.88457  0.17609  0.03219  Biso   1.000  H
  H53      1.0000 0.84351  0.27747  0.05397  Biso   1.000  H
  H54      1.0000 0.88465  0.17609  0.03219  Biso   1.000  H
  C69      1.0000 0.21378  0.31663  0.98989  Biso   1.000  C
  O14      1.0000 0.28051  0.77015  0.95810  Biso   1.000  O
  C70      1.0000 0.39207  0.82022  0.02208  Biso   1.000  C
  C71      1.0000 0.39209  0.82016  0.02208  Biso   1.000  C
  C72      1.0000 0.53853  0.86005  0.07897  Biso   1.000  C
  C73      1.0000 0.11215  0.96533  0.36690  Biso   1.000  C
  C74      1.0000 0.01232  0.05857  0.28929  Biso   1.000  C
  C75      1.0000 0.01230  0.05863  0.28929  Biso   1.000  C
  C76      1.0000 0.35923  0.77604  0.59759  Biso   1.000  C
  H55      1.0000 0.46983  0.67472  0.64100  Biso   1.000  H
  H56      1.0000 0.24883  0.86567  0.54266  Biso   1.000  H
  C77      1.0000 0.69063  0.75096  0.01408  Biso   1.000  C
  O15      1.0000 0.85569  0.65631  0.95010  Biso   1.000  O
  C78      1.0000 0.73865  0.72424  0.41122  Biso   1.000  C
  C79      1.0000 0.93051  0.75004  0.37918  Biso   1.000  C
  C80      1.0000 0.73866  0.72424  0.41117  Biso   1.000  C
  C81      1.0000 0.71051  0.20871  0.97621  Biso   1.000  C
  C82      1.0000 0.30940  0.24895  0.98592  Biso   1.000  C
  C83      1.0000 0.17933  0.35040  0.93189  Biso   1.000  C
  C84      1.0000 0.30941  0.24895  0.98587  Biso   1.000  C
  C85      1.0000 0.18164  0.77796  0.93888  Biso   1.000  C
  C86      1.0000 0.18166  0.77790  0.93888  Biso   1.000  C
  O16      1.0000 0.45286  0.83404  0.96092  Biso   1.000  O
  O17      1.0000 0.45295  0.83404  0.96086  Biso   1.000  O
  H57      1.0000 0.54898  0.89409  0.03320  Biso   1.000  H
  C87      1.0000 0.53618  0.91742  0.13592  Biso   1.000  C
  C88      1.0000 0.53621  0.91736  0.13587  Biso   1.000  C
  H58      1.0000 0.16074  0.90598  0.37847  Biso   1.000  H
  C89      1.0000 0.08662  0.02550  0.41449  Biso   1.000  C
  C90      1.0000 0.98679  0.11874  0.33687  Biso   1.000  C
  H59      1.0000 0.98349  0.07134  0.24090  Biso   1.000  H
  H60      1.0000 0.35836  0.81594  0.63718  Biso   1.000  H
  O18      1.0000 0.65992  0.78641  0.95458  Biso   1.000  O
  C91      1.0000 0.80246  0.61996  0.90412  Biso   1.000  C
  C92      1.0000 0.80258  0.61990  0.90407  Biso   1.000  C
  C93      1.0000 0.90693  0.80238  0.43300  Biso   1.000  C
  H61      1.0000 0.01394  0.73988  0.34588  Biso   1.000  H
  C94      1.0000 0.71507  0.77652  0.46509  Biso   1.000  C
  H62      1.0000 0.67345  0.69405  0.40277  Biso   1.000  H
  C95      1.0000 0.60794  0.17975  0.97792  Biso   1.000  C
  C96      1.0000 0.60798  0.17969  0.97787  Biso   1.000  C
  C97      1.0000 0.77235  0.22204  0.91710  Biso   1.000  C
  C98      1.0000 0.22425  0.31918  0.86831  Biso   1.000  C
  O19      1.0000 0.07935  0.41955  0.93808  Biso   1.000  O
  C99      1.0000 0.22436  0.31912  0.86831  Biso   1.000  C
  C100     1.0000 0.35557  0.21486  0.92389  Biso   1.000  C
  C101     1.0000 0.35567  0.21480  0.92389  Biso   1.000  C
  O20      1.0000 0.34011  0.21350  0.04542  Biso   1.000  O
  O21      1.0000 0.34012  0.21350  0.04537  Biso   1.000  O
  H63      1.0000 0.15654  0.72244  0.94598  Biso   1.000  H
  H64      1.0000 0.11538  0.82382  0.96781  Biso   1.000  H
  C102     1.0000 0.18904  0.79781  0.86589  Biso   1.000  C
  H65      1.0000 0.11546  0.82382  0.96781  Biso   1.000  H
  C103     1.0000 0.55721  0.77668  0.93531  Biso   1.000  C
  C104     1.0000 0.55723  0.77662  0.93531  Biso   1.000  C
  H66      1.0000 0.50666  0.89241  0.18370  Biso   1.000  H
  C105     1.0000 0.45295  0.99988  0.12671  Biso   1.000  C
  H67      1.0000 0.50677  0.89235  0.18370  Biso   1.000  H
  H68      1.0000 0.62442  0.92397  0.13526  Biso   1.000  H
  C106     1.0000 0.45305  0.99988  0.12666  Biso   1.000  C
  C107     1.0000 0.02403  0.10218  0.39950  Biso   1.000  C
  H69      1.0000 0.11539  0.01267  0.46288  Biso   1.000  H
  C108     1.0000 0.02400  0.10224  0.39950  Biso   1.000  C
  H70      1.0000 0.11545  0.01273  0.46288  Biso   1.000  H
  H71      1.0000 0.93833  0.17798  0.32530  Biso   1.000  H
  H72      1.0000 0.93831  0.17804  0.32530  Biso   1.000  H
  C109     1.0000 0.81394  0.66188  0.83752  Biso   1.000  C
  H73      1.0000 0.84829  0.55795  0.89718  Biso   1.000  H
  C110     1.0000 0.81406  0.66182  0.83747  Biso   1.000  C
  H74      1.0000 0.71057  0.62523  0.92349  Biso   1.000  H
  C111     1.0000 0.79912  0.81568  0.47591  Biso   1.000  C
  C112     1.0000 0.79915  0.81562  0.47586  Biso   1.000  C
  H75      1.0000 0.97203  0.83264  0.44140  Biso   1.000  H
  H76      1.0000 0.63152  0.78687  0.49829  Biso   1.000  H
  C113     1.0000 0.57767  0.16515  0.91720  Biso   1.000  C
  C114     1.0000 0.57776  0.16515  0.91720  Biso   1.000  C
  O22      1.0000 0.54709  0.16587  0.03908  Biso   1.000  O
  C115     1.0000 0.74536  0.20452  0.85739  Biso   1.000  C
  O23      1.0000 0.87421  0.24937  0.91932  Biso   1.000  O
  O24      1.0000 0.87425  0.24931  0.91926  Biso   1.000  O
  C116     1.0000 0.31905  0.24964  0.86589  Biso   1.000  C
  C117     1.0000 0.18302  0.35957  0.80709  Biso   1.000  C
  C118     1.0000 0.18305  0.35951  0.80709  Biso   1.000  C
  C119     1.0000 0.11204  0.49343  0.92480  Biso   1.000  C
  C120     1.0000 0.46150  0.13986  0.92103  Biso   1.000  C
  C121     1.0000 0.46154  0.13980  0.92098  Biso   1.000  C
  C122     1.0000 0.44280  0.22329  0.06469  Biso   1.000  C
  C123     1.0000 0.17484  0.76151  0.81328  Biso   1.000  C
  H77      1.0000 0.21090  0.85395  0.85407  Biso   1.000  H
  H78      1.0000 0.54712  0.71877  0.95241  Biso   1.000  H
  H79      1.0000 0.54716  0.71871  0.95236  Biso   1.000  H
  H80      1.0000 0.56752  0.77921  0.88098  Biso   1.000  H
  H81      1.0000 0.36658  0.99260  0.12309  Biso   1.000  H
  H82      1.0000 0.48677  0.02679  0.08089  Biso   1.000  H
  C124     1.0000 0.44182  0.05427  0.18572  Biso   1.000  C
  H83      1.0000 0.48675  0.02685  0.08089  Biso   1.000  H
  C125     1.0000 0.44182  0.05433  0.18567  Biso   1.000  C
  H84      1.0000 0.00419  0.14870  0.43637  Biso   1.000  H
  C126     1.0000 0.84569  0.63034  0.77661  Biso   1.000  C
  H85      1.0000 0.79396  0.72588  0.84019  Biso   1.000  H
  H86      1.0000 0.79406  0.72582  0.84019  Biso   1.000  H
  H87      1.0000 0.78082  0.85604  0.51756  Biso   1.000  H
  C127     1.0000 0.64390  0.17692  0.85930  Biso   1.000  C
  C128     1.0000 0.81583  0.22098  0.79291  Biso   1.000  C
  C129     1.0000 0.81585  0.22092  0.79291  Biso   1.000  C
  C130     1.0000 0.86734  0.33211  0.90468  Biso   1.000  C
  H88      1.0000 0.36356  0.22395  0.81791  Biso   1.000  H
  H89      1.0000 0.36365  0.22395  0.81791  Biso   1.000  H
  C131     1.0000 0.25229  0.42013  0.78491  Biso   1.000  C
  H90      1.0000 0.09050  0.38968  0.81911  Biso   1.000  H
  C132     1.0000 0.18641  0.30225  0.75090  Biso   1.000  C
  H91      1.0000 0.09054  0.38962  0.81906  Biso   1.000  H
  H92      1.0000 0.19995  0.48615  0.93627  Biso   1.000  H
  H93      1.0000 0.05050  0.53861  0.95679  Biso   1.000  H
  O25      1.0000 0.11045  0.51864  0.85780  Biso   1.000  O
  H94      1.0000 0.45105  0.10582  0.96680  Biso   1.000  H
  C133     1.0000 0.46383  0.08255  0.86408  Biso   1.000  C
  H95      1.0000 0.45289  0.28120  0.04759  Biso   1.000  H
  H96      1.0000 0.43252  0.22070  0.11896  Biso   1.000  H
  C134     1.0000 0.15382  0.68023  0.81549  Biso   1.000  C
  H97      1.0000 0.17865  0.79135  0.76499  Biso   1.000  H
  H98      1.0000 0.17874  0.79135  0.76499  Biso   1.000  H
  C135     1.0000 0.53290  0.08912  0.19160  Biso   1.000  C
  C136     1.0000 0.33931  0.07027  0.23320  Biso   1.000  C
  C137     1.0000 0.33929  0.07033  0.23320  Biso   1.000  C
  C138     1.0000 0.88346  0.54157  0.76192  Biso   1.000  C
  C139     1.0000 0.88349  0.54151  0.76187  Biso   1.000  C
  H99      1.0000 0.84488  0.67012  0.73380  Biso   1.000  H
  H100     1.0000 0.61826  0.16514  0.81252  Biso   1.000  H
  H101     1.0000 0.61836  0.16514  0.81247  Biso   1.000  H
  C140     1.0000 0.77218  0.30646  0.76941  Biso   1.000  C
  H102     1.0000 0.90401  0.21144  0.80468  Biso   1.000  H
  C141     1.0000 0.77219  0.30646  0.76936  Biso   1.000  C
  C142     1.0000 0.82835  0.16196  0.73370  Biso   1.000  C
  O26      1.0000 0.90214  0.34318  0.83702  Biso   1.000  O
  H103     1.0000 0.77746  0.36667  0.91901  Biso   1.000  H
  O27      1.0000 0.90226  0.34312  0.83697  Biso   1.000  O
  H104     1.0000 0.92444  0.35170  0.93310  Biso   1.000  H
  H105     1.0000 0.77758  0.36661  0.91896  Biso   1.000  H
  C143     1.0000 0.21400  0.49785  0.81408  Biso   1.000  C
  C144     1.0000 0.35630  0.40512  0.73888  Biso   1.000  C
  H106     1.0000 0.14074  0.25835  0.77168  Biso   1.000  H
  C145     1.0000 0.12979  0.34317  0.69069  Biso   1.000  C
  H107     1.0000 0.27765  0.27325  0.73279  Biso   1.000  H
  C146     1.0000 0.12982  0.34311  0.69069  Biso   1.000  C
  H108     1.0000 0.49326  0.10756  0.81630  Biso   1.000  H
  H109     1.0000 0.37562  0.07594  0.86469  Biso   1.000  H
  H110     1.0000 0.49337  0.10750  0.81630  Biso   1.000  H
  C147     1.0000 0.54708  0.00003  0.87329  Biso   1.000  C
  O28      1.0000 0.25173  0.62363  0.83199  Biso   1.000  O
  H111     1.0000 0.13540  0.66583  0.76750  Biso   1.000  H
  H112     1.0000 0.07867  0.68007  0.85382  Biso   1.000  H
  H113     1.0000 0.07871  0.68001  0.85377  Biso   1.000  H
  H114     1.0000 0.61214  0.07702  0.15478  Biso   1.000  H
  C148     1.0000 0.52137  0.14051  0.24487  Biso   1.000  C
  H115     1.0000 0.61222  0.07702  0.15478  Biso   1.000  H
  C149     1.0000 0.32788  0.12137  0.28652  Biso   1.000  C
  H116     1.0000 0.26890  0.04320  0.22867  Biso   1.000  H
  C150     1.0000 0.32787  0.12143  0.28647  Biso   1.000  C
  H117     1.0000 0.26888  0.04325  0.22867  Biso   1.000  H
  O29      1.0000 0.81394  0.50021  0.80870  Biso   1.000  O
  H118     1.0000 0.87211  0.53106  0.71132  Biso   1.000  H
  H119     1.0000 0.97532  0.51924  0.76730  Biso   1.000  H
  H120     1.0000 0.87212  0.53106  0.71127  Biso   1.000  H
  C151     1.0000 0.68489  0.33136  0.72998  Biso   1.000  C
  C152     1.0000 0.81837  0.36417  0.79572  Biso   1.000  C
  C153     1.0000 0.81841  0.36411  0.79567  Biso   1.000  C
  H121     1.0000 0.87532  0.18149  0.68828  Biso   1.000  H
  H122     1.0000 0.74126  0.16048  0.72530  Biso   1.000  H
  C154     1.0000 0.89426  0.07937  0.75342  Biso   1.000  C
  H123     1.0000 0.87534  0.18143  0.68828  Biso   1.000  H
  H124     1.0000 0.74136  0.16042  0.72530  Biso   1.000  H
  C155     1.0000 0.89436  0.07937  0.75337  Biso   1.000  C
  H125     1.0000 0.38697  0.34715  0.71589  Biso   1.000  H
  C156     1.0000 0.42390  0.45989  0.72102  Biso   1.000  C
  C157     1.0000 0.42394  0.45983  0.72097  Biso   1.000  C
  C158     1.0000 0.28187  0.55124  0.79779  Biso   1.000  C
  C159     1.0000 0.28195  0.55124  0.79779  Biso   1.000  C
  H126     1.0000 0.16419  0.39405  0.67550  Biso   1.000  H
  H127     1.0000 0.03548  0.36274  0.70639  Biso   1.000  H
  C160     1.0000 0.15370  0.28885  0.63169  Biso   1.000  C
  H128     1.0000 0.51326  0.97312  0.91911  Biso   1.000  H
  C161     1.0000 0.55821  0.94564  0.81428  Biso   1.000  C
  H129     1.0000 0.51325  0.97318  0.91906  Biso   1.000  H
  C162     1.0000 0.55818  0.94570  0.81428  Biso   1.000  C
  H130     1.0000 0.63342  0.00737  0.87691  Biso   1.000  H
  H131     1.0000 0.63345  0.00731  0.87691  Biso   1.000  H
  H132     1.0000 0.59186  0.16759  0.24940  Biso   1.000  H
  C163     1.0000 0.41901  0.15652  0.29241  Biso   1.000  C
  H133     1.0000 0.59193  0.16765  0.24940  Biso   1.000  H
  H134     1.0000 0.24860  0.13382  0.32329  Biso   1.000  H
  C164     1.0000 0.77314  0.44102  0.78169  Biso   1.000  C
  C165     1.0000 0.63992  0.41139  0.71152  Biso   1.000  C
  C166     1.0000 0.63995  0.41133  0.71147  Biso   1.000  C
  H135     1.0000 0.64816  0.28696  0.71242  Biso   1.000  H
  H136     1.0000 0.64826  0.28696  0.71237  Biso   1.000  H
  H137     1.0000 0.97581  0.08366  0.76831  Biso   1.000  H
  C167     1.0000 0.92501  0.01808  0.69572  Biso   1.000  C
  H138     1.0000 0.84110  0.05825  0.79537  Biso   1.000  H
  C168     1.0000 0.92505  0.01802  0.69567  Biso   1.000  C
  C169     1.0000 0.38435  0.53468  0.75271  Biso   1.000  C
  C170     1.0000 0.53920  0.43955  0.67258  Biso   1.000  C
  C171     1.0000 0.38439  0.53462  0.75266  Biso   1.000  C
  C172     1.0000 0.26138  0.27567  0.58878  Biso   1.000  C
  C173     1.0000 0.06953  0.24987  0.62077  Biso   1.000  C
  C174     1.0000 0.46708  0.91091  0.80840  Biso   1.000  C
  C175     1.0000 0.66070  0.92970  0.76680  Biso   1.000  C
  H139     1.0000 0.41012  0.19611  0.33370  Biso   1.000  H
  C176     1.0000 0.68978  0.46604  0.74190  Biso   1.000  C
  C177     1.0000 0.98771  0.94134  0.71071  Biso   1.000  C
  C178     1.0000 0.98769  0.94140  0.71071  Biso   1.000  C
  C179     1.0000 0.88788  0.03458  0.63310  Biso   1.000  C
  C180     1.0000 0.88790  0.03452  0.63310  Biso   1.000  C
  O30      1.0000 0.44388  0.59289  0.73461  Biso   1.000  O
  O31      1.0000 0.44390  0.59283  0.73461  Biso   1.000  O
  C181     1.0000 0.53486  0.38289  0.61660  Biso   1.000  C
  H140     1.0000 0.55378  0.49206  0.64567  Biso   1.000  H
  C182     1.0000 0.53489  0.38283  0.61660  Biso   1.000  C
  H141     1.0000 0.98607  0.26009  0.65412  Biso   1.000  H
  H142     1.0000 0.98610  0.26003  0.65407  Biso   1.000  H
  C183     1.0000 0.09310  0.19753  0.56700  Biso   1.000  C
  H143     1.0000 0.32659  0.30586  0.59718  Biso   1.000  H
  C184     1.0000 0.28498  0.22333  0.53491  Biso   1.000  C
  C185     1.0000 0.47865  0.85946  0.75508  Biso   1.000  C
  H144     1.0000 0.38779  0.92295  0.84522  Biso   1.000  H
  C186     1.0000 0.47863  0.85952  0.75508  Biso   1.000  C
  H145     1.0000 0.38778  0.92301  0.84517  Biso   1.000  H
  C187     1.0000 0.67213  0.87860  0.71348  Biso   1.000  C
  H146     1.0000 0.73112  0.95677  0.77128  Biso   1.000  H
  O32      1.0000 0.64899  0.54667  0.72238  Biso   1.000  O
  C188     1.0000 0.01320  0.88129  0.66313  Biso   1.000  C
  H147     1.0000 0.01649  0.92868  0.75910  Biso   1.000  H
  C189     1.0000 0.01321  0.88129  0.66308  Biso   1.000  C
  C190     1.0000 0.91339  0.97447  0.58551  Biso   1.000  C
  C191     1.0000 0.91337  0.97453  0.58551  Biso   1.000  C
  H148     1.0000 0.83927  0.09399  0.62153  Biso   1.000  H
  H149     1.0000 0.83931  0.09393  0.62148  Biso   1.000  H
  C192     1.0000 0.54298  0.59125  0.76408  Biso   1.000  C
  H150     1.0000 0.45548  0.40587  0.59461  Biso   1.000  H
  H151     1.0000 0.53550  0.32465  0.63772  Biso   1.000  H
  C193     1.0000 0.63989  0.37786  0.56408  Biso   1.000  C
  H152     1.0000 0.45549  0.40587  0.59456  Biso   1.000  H
  H153     1.0000 0.53552  0.32465  0.63767  Biso   1.000  H
  H154     1.0000 0.02800  0.16727  0.55860  Biso   1.000  H
  C194     1.0000 0.20091  0.18423  0.52409  Biso   1.000  C
  H155     1.0000 0.36851  0.21304  0.50171  Biso   1.000  H
  C195     1.0000 0.58097  0.84351  0.70759  Biso   1.000  C
  H156     1.0000 0.40814  0.83238  0.75060  Biso   1.000  H
  H157     1.0000 0.75138  0.86621  0.67671  Biso   1.000  H
  C196     1.0000 0.97598  0.89779  0.60050  Biso   1.000  C
  H158     1.0000 0.06168  0.82199  0.67470  Biso   1.000  H
  H159     1.0000 0.88454  0.98730  0.53712  Biso   1.000  H
  H160     1.0000 0.88464  0.98730  0.53707  Biso   1.000  H
  H161     1.0000 0.54914  0.65137  0.76962  Biso   1.000  H
  H162     1.0000 0.53504  0.56313  0.81308  Biso   1.000  H
  H163     1.0000 0.54926  0.65131  0.76957  Biso   1.000  H
  H164     1.0000 0.64138  0.43708  0.54607  Biso   1.000  H
  H165     1.0000 0.71832  0.35178  0.58616  Biso   1.000  H
  C197     1.0000 0.63858  0.32698  0.50467  Biso   1.000  C
  H166     1.0000 0.21922  0.14387  0.48239  Biso   1.000  H
  H167     1.0000 0.58986  0.80392  0.66630  Biso   1.000  H
  H168     1.0000 0.99583  0.85127  0.56358  Biso   1.000  H
  H169     1.0000 0.99581  0.85133  0.56358  Biso   1.000  H
  C198     1.0000 0.70141  0.24737  0.50689  Biso   1.000  C
  C199     1.0000 0.57691  0.35495  0.45140  Biso   1.000  C
  H170     1.0000 0.74918  0.22567  0.54808  Biso   1.000  H
  C200     1.0000 0.70249  0.19584  0.45568  Biso   1.000  C
  C201     1.0000 0.57793  0.30348  0.40030  Biso   1.000  C
  C202     1.0000 0.57802  0.30348  0.40030  Biso   1.000  C
  H171     1.0000 0.52819  0.41655  0.44979  Biso   1.000  H
  C203     1.0000 0.64080  0.22387  0.40241  Biso   1.000  C
  H172     1.0000 0.75121  0.13424  0.45729  Biso   1.000  H
  H173     1.0000 0.53020  0.32519  0.35900  Biso   1.000  H
  H174     1.0000 0.64168  0.18397  0.36277  Biso   1.000  H
