data_image0
_cell_length_a       18.976
_cell_length_b       12.794
_cell_length_c       21.464
_cell_angle_alpha    90
_cell_angle_beta     98.72
_cell_angle_gamma    90

_symmetry_space_group_name_H-M    "P 1"
_symmetry_int_tables_number       1

loop_
  _symmetry_equiv_pos_as_xyz
  'x, y, z'

loop_
  _atom_site_label
  _atom_site_occupancy
  _atom_site_fract_x
  _atom_site_fract_y
  _atom_site_fract_z
  _atom_site_thermal_displace_type
  _atom_site_B_iso_or_equiv
  _atom_site_type_symbol
  O1       1.0000 0.57431  0.62467  0.53842  Biso   1.000  O
  C1       1.0000 0.55189  0.72354  0.55119  Biso   1.000  C
  C2       1.0000 0.64801  0.60278  0.55180  Biso   1.000  C
  C3       1.0000 0.47804  0.73964  0.54186  Biso   1.000  C
  C4       1.0000 0.59755  0.80475  0.57160  Biso   1.000  C
  H1       1.0000 0.66404  0.61161  0.59611  Biso   1.000  H
  H2       1.0000 0.65651  0.53212  0.53993  Biso   1.000  H
  H3       1.0000 0.67363  0.64984  0.52852  Biso   1.000  H
  C5       1.0000 0.42735  0.64952  0.52409  Biso   1.000  C
  C6       1.0000 0.45244  0.83813  0.55303  Biso   1.000  C
  C7       1.0000 0.57265  0.90269  0.58404  Biso   1.000  C
  H4       1.0000 0.64641  0.79303  0.57721  Biso   1.000  H
  C8       1.0000 0.41244  0.59168  0.58216  Biso   1.000  C
  H5       1.0000 0.38304  0.67594  0.50109  Biso   1.000  H
  H6       1.0000 0.44800  0.60184  0.49670  Biso   1.000  H
  C9       1.0000 0.49851  0.91926  0.57429  Biso   1.000  C
  H7       1.0000 0.40353  0.85024  0.54619  Biso   1.000  H
  C10      1.0000 0.62333  0.99039  0.60704  Biso   1.000  C
  C11      1.0000 0.35561  0.61935  0.61308  Biso   1.000  C
  C12      1.0000 0.45784  0.51282  0.60785  Biso   1.000  C
  O2       1.0000 0.47626  0.01829  0.58772  Biso   1.000  O
  C13      1.0000 0.63874  0.99703  0.67817  Biso   1.000  C
  H8       1.0000 0.66780  0.98015  0.59069  Biso   1.000  H
  H9       1.0000 0.60300  0.05620  0.59050  Biso   1.000  H
  O3       1.0000 0.31424  0.70158  0.58697  Biso   1.000  O
  C14      1.0000 0.34409  0.56644  0.66672  Biso   1.000  C
  H10      1.0000 0.49572  0.49320  0.58748  Biso   1.000  H
  C15      1.0000 0.44835  0.46264  0.66285  Biso   1.000  C
  C16      1.0000 0.40188  0.03916  0.57471  Biso   1.000  C
  C17      1.0000 0.69381  0.93864  0.71258  Biso   1.000  C
  C18      1.0000 0.59795  0.06026  0.71069  Biso   1.000  C
  C19      1.0000 0.25702  0.73214  0.61930  Biso   1.000  C
  C20      1.0000 0.38985  0.48749  0.69292  Biso   1.000  C
  H11      1.0000 0.30484  0.58395  0.68581  Biso   1.000  H
  O4       1.0000 0.49386  0.38487  0.69038  Biso   1.000  O
  H12      1.0000 0.37422  0.99601  0.59898  Biso   1.000  H
  C21      1.0000 0.39109  0.14616  0.59290  Biso   1.000  C
  H13      1.0000 0.38470  0.03306  0.52923  Biso   1.000  H
  O5       1.0000 0.73196  0.87580  0.67784  Biso   1.000  O
  C22      1.0000 0.70650  0.94380  0.77828  Biso   1.000  C
  H14      1.0000 0.56191  0.10091  0.68859  Biso   1.000  H
  C23      1.0000 0.61048  0.06355  0.77734  Biso   1.000  C
  C24      1.0000 0.22904  0.83062  0.59352  Biso   1.000  C
  H15      1.0000 0.21925  0.68102  0.61322  Biso   1.000  H
  H16      1.0000 0.27602  0.74402  0.66799  Biso   1.000  H
  C25      1.0000 0.37735  0.43474  0.75340  Biso   1.000  C
  C26      1.0000 0.55032  0.34962  0.65512  Biso   1.000  C
  C27      1.0000 0.38088  0.23323  0.60742  Biso   1.000  C
  C28      1.0000 0.78034  0.80303  0.71074  Biso   1.000  C
  H17      1.0000 0.74340  0.90496  0.80048  Biso   1.000  H
  C29      1.0000 0.66446  0.00633  0.81095  Biso   1.000  C
  O6       1.0000 0.57060  0.12443  0.81184  Biso   1.000  O
  C30      1.0000 0.20321  0.91082  0.57377  Biso   1.000  C
  C31      1.0000 0.41176  0.49359  0.81147  Biso   1.000  C
  H18      1.0000 0.32644  0.42950  0.75401  Biso   1.000  H
  H19      1.0000 0.39652  0.36431  0.75453  Biso   1.000  H
  H20      1.0000 0.58113  0.40730  0.64951  Biso   1.000  H
  H21      1.0000 0.57752  0.29514  0.67822  Biso   1.000  H
  H22      1.0000 0.52911  0.32351  0.61473  Biso   1.000  H
  H23      1.0000 0.37293  0.30186  0.61883  Biso   1.000  H
  H24      1.0000 0.75522  0.75809  0.73572  Biso   1.000  H
  H25      1.0000 0.80133  0.76169  0.68100  Biso   1.000  H
  H26      1.0000 0.81711  0.83992  0.73770  Biso   1.000  H
  C32      1.0000 0.67608  0.00516  0.88297  Biso   1.000  C
  C33      1.0000 0.50047  0.14999  0.78484  Biso   1.000  C
  H27      1.0000 0.18290  0.97366  0.55831  Biso   1.000  H
  C34      1.0000 0.47851  0.46561  0.84149  Biso   1.000  C
  C35      1.0000 0.37737  0.57699  0.83588  Biso   1.000  C
  C36      1.0000 0.63553  0.91645  0.90927  Biso   1.000  C
  H28      1.0000 0.72661  0.99766  0.89829  Biso   1.000  H
  H29      1.0000 0.66056  0.07144  0.89819  Biso   1.000  H
  C37      1.0000 0.46194  0.18305  0.83428  Biso   1.000  C
  H30      1.0000 0.47304  0.09504  0.75731  Biso   1.000  H
  H31      1.0000 0.50200  0.20400  0.75599  Biso   1.000  H
  H32      1.0000 0.50214  0.41035  0.82561  Biso   1.000  H
  C38      1.0000 0.51132  0.51790  0.89480  Biso   1.000  C
  O7       1.0000 0.31093  0.60169  0.80397  Biso   1.000  O
  C39      1.0000 0.41009  0.62990  0.88929  Biso   1.000  C
  C40      1.0000 0.56608  0.93294  0.91973  Biso   1.000  C
  C41      1.0000 0.66579  0.81913  0.92101  Biso   1.000  C
  C42      1.0000 0.43184  0.21205  0.87599  Biso   1.000  C
  O8       1.0000 0.57738  0.49039  0.92695  Biso   1.000  O
  C43      1.0000 0.47756  0.60169  0.91922  Biso   1.000  C
  C44      1.0000 0.27246  0.68149  0.82980  Biso   1.000  C
  H33      1.0000 0.38636  0.68509  0.90522  Biso   1.000  H
  C45      1.0000 0.52645  0.85173  0.94123  Biso   1.000  C
  H34      1.0000 0.54554  0.99859  0.91243  Biso   1.000  H
  C46      1.0000 0.62734  0.73925  0.94358  Biso   1.000  C
  O9       1.0000 0.73522  0.80694  0.90889  Biso   1.000  O
  H35      1.0000 0.40833  0.23472  0.90852  Biso   1.000  H
  C47      1.0000 0.61062  0.39941  0.90442  Biso   1.000  C
  C48      1.0000 0.51402  0.66414  0.97512  Biso   1.000  C
  H36      1.0000 0.29802  0.74621  0.83009  Biso   1.000  H
  H37      1.0000 0.22637  0.68923  0.80473  Biso   1.000  H
  H38      1.0000 0.26676  0.66320  0.87213  Biso   1.000  H
  C49      1.0000 0.55720  0.75434  0.95372  Biso   1.000  C
  O10      1.0000 0.45689  0.86251  0.95169  Biso   1.000  O
  H39      1.0000 0.64873  0.67430  0.95212  Biso   1.000  H
  C50      1.0000 0.76446  0.70533  0.91408  Biso   1.000  C
  H40      1.0000 0.62415  0.41379  0.86350  Biso   1.000  H
  H41      1.0000 0.57734  0.34133  0.89999  Biso   1.000  H
  C51      1.0000 0.67210  0.37330  0.94830  Biso   1.000  C
  H42      1.0000 0.47844  0.69150  0.99869  Biso   1.000  H
  H43      1.0000 0.54538  0.61841  0.00279  Biso   1.000  H
  C52      1.0000 0.42104  0.95521  0.92888  Biso   1.000  C
  H44      1.0000 0.73552  0.65953  0.88542  Biso   1.000  H
  H45      1.0000 0.81204  0.70705  0.90390  Biso   1.000  H
  H46      1.0000 0.76566  0.68040  0.95641  Biso   1.000  H
  C53      1.0000 0.72433  0.34868  0.98487  Biso   1.000  C
  H47      1.0000 0.42634  0.96600  0.88509  Biso   1.000  H
  C54      1.0000 0.34731  0.94662  0.93439  Biso   1.000  C
  H48      1.0000 0.44172  0.01485  0.95301  Biso   1.000  H
  H49      1.0000 0.76451  0.32969  0.01301  Biso   1.000  H
  C55      1.0000 0.28516  0.94302  0.93765  Biso   1.000  C
  H50      1.0000 0.23674  0.94021  0.94019  Biso   1.000  H
  O11      1.0000 0.42575  0.37541  0.46159  Biso   1.000  O
  C56      1.0000 0.44812  0.27654  0.44881  Biso   1.000  C
  C57      1.0000 0.35205  0.39722  0.44820  Biso   1.000  C
  C58      1.0000 0.40251  0.19533  0.42841  Biso   1.000  C
  C59      1.0000 0.52197  0.26043  0.45815  Biso   1.000  C
  H51      1.0000 0.33602  0.38839  0.40390  Biso   1.000  H
  H52      1.0000 0.34350  0.46788  0.46013  Biso   1.000  H
  H53      1.0000 0.32643  0.35024  0.47149  Biso   1.000  H
  C60      1.0000 0.42736  0.09731  0.41596  Biso   1.000  C
  H54      1.0000 0.35359  0.20697  0.42280  Biso   1.000  H
  C61      1.0000 0.54756  0.16187  0.44698  Biso   1.000  C
  C62      1.0000 0.57265  0.35048  0.47592  Biso   1.000  C
  C63      1.0000 0.37667  0.00961  0.39296  Biso   1.000  C
  C64      1.0000 0.50150  0.08082  0.42577  Biso   1.000  C
  H55      1.0000 0.59653  0.14984  0.45381  Biso   1.000  H
  C65      1.0000 0.58762  0.40832  0.41785  Biso   1.000  C
  H56      1.0000 0.61702  0.32414  0.49892  Biso   1.000  H
  H57      1.0000 0.55200  0.39823  0.50330  Biso   1.000  H
  C66      1.0000 0.36126  0.00297  0.32183  Biso   1.000  C
  H58      1.0000 0.33221  0.01993  0.40932  Biso   1.000  H
  H59      1.0000 0.39700  0.94380  0.40950  Biso   1.000  H
  O12      1.0000 0.52375  0.98171  0.41229  Biso   1.000  O
  C67      1.0000 0.64440  0.38073  0.38693  Biso   1.000  C
  C68      1.0000 0.54216  0.48718  0.39216  Biso   1.000  C
  C69      1.0000 0.30619  0.06144  0.28743  Biso   1.000  C
  C70      1.0000 0.40206  0.93982  0.28931  Biso   1.000  C
  C71      1.0000 0.59817  0.96092  0.42529  Biso   1.000  C
  O13      1.0000 0.68582  0.29842  0.41304  Biso   1.000  O
  C72      1.0000 0.65596  0.43364  0.33329  Biso   1.000  C
  H60      1.0000 0.50429  0.50680  0.41252  Biso   1.000  H
  C73      1.0000 0.55170  0.53744  0.33715  Biso   1.000  C
  O14      1.0000 0.26809  0.12420  0.32216  Biso   1.000  O
  C74      1.0000 0.29355  0.05620  0.22172  Biso   1.000  C
  H61      1.0000 0.43810  0.89909  0.31142  Biso   1.000  H
  C75      1.0000 0.38957  0.93653  0.22266  Biso   1.000  C
  H62      1.0000 0.62579  0.00399  0.40102  Biso   1.000  H
  C76      1.0000 0.60897  0.85392  0.40710  Biso   1.000  C
  H63      1.0000 0.61531  0.96702  0.47083  Biso   1.000  H
  C77      1.0000 0.74304  0.26794  0.38071  Biso   1.000  C
  C78      1.0000 0.61015  0.51251  0.30708  Biso   1.000  C
  H64      1.0000 0.69522  0.41613  0.31420  Biso   1.000  H
  O15      1.0000 0.50614  0.61513  0.30963  Biso   1.000  O
  C79      1.0000 0.21971  0.19697  0.28926  Biso   1.000  C
  H65      1.0000 0.25660  0.09512  0.19952  Biso   1.000  H
  C80      1.0000 0.33554  0.99367  0.18906  Biso   1.000  C
  O16      1.0000 0.42940  0.87557  0.18816  Biso   1.000  O
  C81      1.0000 0.61912  0.76677  0.39258  Biso   1.000  C
  C82      1.0000 0.77096  0.16938  0.40649  Biso   1.000  C
  H66      1.0000 0.78081  0.31898  0.38679  Biso   1.000  H
  H67      1.0000 0.72399  0.25598  0.33202  Biso   1.000  H
  C83      1.0000 0.62266  0.56534  0.24665  Biso   1.000  C
  C84      1.0000 0.44974  0.65038  0.34488  Biso   1.000  C
  H68      1.0000 0.24478  0.24191  0.26428  Biso   1.000  H
  H69      1.0000 0.19873  0.23831  0.31901  Biso   1.000  H
  H70      1.0000 0.18289  0.16008  0.26230  Biso   1.000  H
  C85      1.0000 0.32394  0.99492  0.11708  Biso   1.000  C
  C86      1.0000 0.49959  0.85001  0.21517  Biso   1.000  C
  H71      1.0000 0.62714  0.69822  0.38122  Biso   1.000  H
  C87      1.0000 0.79685  0.08918  0.42624  Biso   1.000  C
  C88      1.0000 0.58824  0.50641  0.18854  Biso   1.000  C
  H72      1.0000 0.67361  0.57050  0.24599  Biso   1.000  H
  H73      1.0000 0.60350  0.63569  0.24552  Biso   1.000  H
  H74      1.0000 0.41893  0.59270  0.35049  Biso   1.000  H
  H75      1.0000 0.42249  0.70494  0.32179  Biso   1.000  H
  H76      1.0000 0.47090  0.67649  0.38532  Biso   1.000  H
  C89      1.0000 0.36453  0.08363  0.09073  Biso   1.000  C
  H77      1.0000 0.27340  0.00242  0.10172  Biso   1.000  H
  H78      1.0000 0.33950  0.92856  0.10181  Biso   1.000  H
  C90      1.0000 0.53806  0.81702  0.16572  Biso   1.000  C
  H79      1.0000 0.52702  0.90503  0.24270  Biso   1.000  H
  H80      1.0000 0.49800  0.79600  0.24402  Biso   1.000  H
  H81      1.0000 0.81710  0.02642  0.44170  Biso   1.000  H
  C91      1.0000 0.52154  0.53439  0.15851  Biso   1.000  C
  C92      1.0000 0.62268  0.42301  0.16412  Biso   1.000  C
  C93      1.0000 0.43393  0.06706  0.08027  Biso   1.000  C
  C94      1.0000 0.33421  0.18087  0.07900  Biso   1.000  C
  C95      1.0000 0.56822  0.78803  0.12401  Biso   1.000  C
  C96      1.0000 0.48869  0.48210  0.10520  Biso   1.000  C
  H82      1.0000 0.49792  0.58973  0.17440  Biso   1.000  H
  C97      1.0000 0.58992  0.37010  0.11072  Biso   1.000  C
  O17      1.0000 0.68913  0.39831  0.19603  Biso   1.000  O
  H83      1.0000 0.45448  0.00141  0.08762  Biso   1.000  H
  C98      1.0000 0.47361  0.14827  0.05878  Biso   1.000  C
  O18      1.0000 0.26478  0.19314  0.09111  Biso   1.000  O
  C99      1.0000 0.37271  0.26083  0.05642  Biso   1.000  C
  H84      1.0000 0.59168  0.76528  0.09149  Biso   1.000  H
  C100     1.0000 0.52250  0.39831  0.08079  Biso   1.000  C
  O19      1.0000 0.42268  0.50961  0.07306  Biso   1.000  O
  H85      1.0000 0.61369  0.31491  0.09479  Biso   1.000  H
  C101     1.0000 0.72760  0.31851  0.17020  Biso   1.000  C
  C102     1.0000 0.44286  0.24574  0.04629  Biso   1.000  C
  O20      1.0000 0.54317  0.13749  0.04831  Biso   1.000  O
  C103     1.0000 0.23560  0.29467  0.08597  Biso   1.000  C
  H86      1.0000 0.35128  0.32570  0.04789  Biso   1.000  H
  C104     1.0000 0.48598  0.33594  0.02489  Biso   1.000  C
  C105     1.0000 0.38944  0.60059  0.09559  Biso   1.000  C
  H87      1.0000 0.70199  0.25379  0.16992  Biso   1.000  H
  H88      1.0000 0.77369  0.31077  0.19528  Biso   1.000  H
  H89      1.0000 0.73331  0.33680  0.12792  Biso   1.000  H
  C106     1.0000 0.57897  0.04479  0.07113  Biso   1.000  C
  H90      1.0000 0.26448  0.34047  0.11458  Biso   1.000  H
  H91      1.0000 0.18801  0.29303  0.09611  Biso   1.000  H
  H92      1.0000 0.23439  0.31960  0.04360  Biso   1.000  H
  H93      1.0000 0.52157  0.30850  0.00132  Biso   1.000  H
  H94      1.0000 0.45462  0.38159  0.99722  Biso   1.000  H
  H95      1.0000 0.37591  0.58621  0.13650  Biso   1.000  H
  H96      1.0000 0.42272  0.65875  0.10002  Biso   1.000  H
  C107     1.0000 0.32795  0.62670  0.05171  Biso   1.000  C
  H97      1.0000 0.57367  0.03400  0.11491  Biso   1.000  H
  C108     1.0000 0.65269  0.05338  0.06561  Biso   1.000  C
  H98      1.0000 0.55828  0.98523  0.04699  Biso   1.000  H
  C109     1.0000 0.27568  0.65132  0.01513  Biso   1.000  C
  C110     1.0000 0.71490  0.05698  0.06236  Biso   1.000  C
  H99      1.0000 0.23554  0.67031  0.98699  Biso   1.000  H
  H100     1.0000 0.76326  0.05979  0.05981  Biso   1.000  H
  O21      1.0000 0.76484  0.30694  0.59111  Biso   1.000  O
  C111     1.0000 0.73560  0.20533  0.58598  Biso   1.000  C
  C112     1.0000 0.83422  0.31913  0.57900  Biso   1.000  C
  H101     1.0000 0.76454  0.15953  0.61459  Biso   1.000  H
  H102     1.0000 0.68802  0.20697  0.59611  Biso   1.000  H
  H103     1.0000 0.73440  0.18040  0.54360  Biso   1.000  H
  C113     1.0000 0.86453  0.41645  0.59074  Biso   1.000  C
  C114     1.0000 0.87271  0.23917  0.55642  Biso   1.000  C
  C115     1.0000 0.93398  0.43294  0.58027  Biso   1.000  C
  C116     1.0000 0.82394  0.50508  0.61708  Biso   1.000  C
  C117     1.0000 0.94286  0.25434  0.54629  Biso   1.000  C
  H104     1.0000 0.85133  0.17430  0.54789  Biso   1.000  H
  H105     1.0000 0.95453  0.49859  0.58763  Biso   1.000  H
  C118     1.0000 0.97361  0.35173  0.55878  Biso   1.000  C
  C119     1.0000 0.83554  0.50633  0.68906  Biso   1.000  C
  H106     1.0000 0.83950  0.57144  0.60181  Biso   1.000  H
  H107     1.0000 0.77340  0.49758  0.60172  Biso   1.000  H
  C120     1.0000 0.98598  0.16414  0.52489  Biso   1.000  C
  O22      1.0000 0.04317  0.36251  0.54832  Biso   1.000  O
  C121     1.0000 0.79356  0.44380  0.72172  Biso   1.000  C
  C122     1.0000 0.88958  0.56355  0.72267  Biso   1.000  C
  H108     1.0000 0.95463  0.11841  0.49722  Biso   1.000  H
  C123     1.0000 0.02255  0.10169  0.58079  Biso   1.000  C
  H109     1.0000 0.02168  0.19150  0.50132  Biso   1.000  H
  C124     1.0000 0.07907  0.45521  0.57113  Biso   1.000  C
  C125     1.0000 0.80625  0.43864  0.78743  Biso   1.000  C
  H110     1.0000 0.75660  0.40488  0.69952  Biso   1.000  H
  C126     1.0000 0.90206  0.56018  0.78931  Biso   1.000  C
  O23      1.0000 0.92945  0.62443  0.68816  Biso   1.000  O
  C127     1.0000 0.98874  0.01790  0.60521  Biso   1.000  C
  C128     1.0000 0.09003  0.12990  0.61072  Biso   1.000  C
  H111     1.0000 0.05833  0.51485  0.54700  Biso   1.000  H
  H112     1.0000 0.07378  0.46600  0.61492  Biso   1.000  H
  C129     1.0000 0.15280  0.44662  0.56561  Biso   1.000  C
  O24      1.0000 0.76810  0.37580  0.82217  Biso   1.000  O
  C130     1.0000 0.86131  0.49703  0.82184  Biso   1.000  C
  H113     1.0000 0.93810  0.60091  0.81142  Biso   1.000  H
  C131     1.0000 0.99959  0.64999  0.71517  Biso   1.000  C
  O25      1.0000 0.92268  0.99039  0.57306  Biso   1.000  O
  C132     1.0000 0.02160  0.96561  0.65852  Biso   1.000  C
  H114     1.0000 0.11375  0.18509  0.59479  Biso   1.000  H
  C133     1.0000 0.12274  0.07699  0.66412  Biso   1.000  C
  C134     1.0000 0.21495  0.44302  0.56236  Biso   1.000  C
  C135     1.0000 0.71972  0.30303  0.78927  Biso   1.000  C
  C136     1.0000 0.87667  0.49039  0.89296  Biso   1.000  C
  H115     1.0000 0.99800  0.70400  0.74402  Biso   1.000  H
  C137     1.0000 0.03812  0.68305  0.66573  Biso   1.000  C
  H116     1.0000 0.02708  0.59504  0.74270  Biso   1.000  H
  C138     1.0000 0.88944  0.89941  0.59559  Biso   1.000  C
  H117     1.0000 0.99792  0.91027  0.67440  Biso   1.000  H
  C139     1.0000 0.08835  0.99359  0.68854  Biso   1.000  C
  O26      1.0000 0.18918  0.10169  0.69603  Biso   1.000  O
  H118     1.0000 0.26337  0.44021  0.55982  Biso   1.000  H
  H119     1.0000 0.74484  0.25809  0.76429  Biso   1.000  H
  H120     1.0000 0.69873  0.26169  0.81901  Biso   1.000  H
  H121     1.0000 0.68295  0.33992  0.76231  Biso   1.000  H
  C140     1.0000 0.92741  0.40269  0.91596  Biso   1.000  C
  H122     1.0000 0.83221  0.48015  0.90932  Biso   1.000  H
  H123     1.0000 0.89701  0.55620  0.90951  Biso   1.000  H
  C141     1.0000 0.06822  0.71205  0.62401  Biso   1.000  C
  H124     1.0000 0.87591  0.91379  0.63650  Biso   1.000  H
  H125     1.0000 0.92272  0.84133  0.60002  Biso   1.000  H
  C142     1.0000 0.82796  0.87330  0.55171  Biso   1.000  C
  C143     1.0000 0.12277  0.93474  0.74666  Biso   1.000  C
  C144     1.0000 0.22765  0.18149  0.67020  Biso   1.000  C
  C145     1.0000 0.90251  0.30467  0.92841  Biso   1.000  C
  C146     1.0000 0.00161  0.41918  0.92577  Biso   1.000  C
  H126     1.0000 0.09173  0.73472  0.59149  Biso   1.000  H
  C147     1.0000 0.77573  0.84868  0.51513  Biso   1.000  C
  C148     1.0000 0.11021  0.98749  0.80708  Biso   1.000  C
  H127     1.0000 0.17367  0.92950  0.74600  Biso   1.000  H
  H128     1.0000 0.10350  0.86431  0.74553  Biso   1.000  H
  H129     1.0000 0.20204  0.24621  0.66992  Biso   1.000  H
  H130     1.0000 0.27375  0.18923  0.69533  Biso   1.000  H
  H131     1.0000 0.23336  0.16320  0.62793  Biso   1.000  H
  H132     1.0000 0.85365  0.29303  0.92280  Biso   1.000  H
  C149     1.0000 0.94817  0.22354  0.94882  Biso   1.000  C
  O27      1.0000 0.02385  0.51829  0.91229  Biso   1.000  O
  C150     1.0000 0.04767  0.33813  0.94698  Biso   1.000  C
  H133     1.0000 0.73549  0.82969  0.48699  Biso   1.000  H
  C151     1.0000 0.05176  0.96256  0.83716  Biso   1.000  C
  C152     1.0000 0.15596  0.06644  0.83329  Biso   1.000  C
  O28      1.0000 0.92575  0.12459  0.96159  Biso   1.000  O
  C153     1.0000 0.02207  0.23964  0.95815  Biso   1.000  C
  C154     1.0000 0.09818  0.53908  0.92530  Biso   1.000  C
  H134     1.0000 0.09658  0.35024  0.95381  Biso   1.000  H
  O29      1.0000 0.00620  0.88487  0.80963  Biso   1.000  O
  C155     1.0000 0.04222  0.01282  0.89216  Biso   1.000  C
  C156     1.0000 0.14440  0.11927  0.88693  Biso   1.000  C
  H135     1.0000 0.19527  0.08387  0.81420  Biso   1.000  H
  C157     1.0000 0.85205  0.10278  0.94820  Biso   1.000  C
  C158     1.0000 0.07276  0.14952  0.97592  Biso   1.000  C
  C159     1.0000 0.10897  0.64608  0.90710  Biso   1.000  C
  H136     1.0000 0.12590  0.49601  0.90102  Biso   1.000  H
  H137     1.0000 0.11531  0.53298  0.97083  Biso   1.000  H
  C160     1.0000 0.94974  0.84962  0.84489  Biso   1.000  C
  H138     1.0000 0.00440  0.99320  0.91252  Biso   1.000  H
  C161     1.0000 0.08768  0.09168  0.91785  Biso   1.000  C
  O30      1.0000 0.18582  0.20158  0.91304  Biso   1.000  O
  H139     1.0000 0.83602  0.11161  0.90390  Biso   1.000  H
  H140     1.0000 0.84356  0.03212  0.96013  Biso   1.000  H
  H141     1.0000 0.82643  0.14984  0.97149  Biso   1.000  H
  H142     1.0000 0.11707  0.17594  0.99892  Biso   1.000  H
  H143     1.0000 0.05200  0.10177  0.00330  Biso   1.000  H
  C162     1.0000 0.11918  0.73323  0.89259  Biso   1.000  C
  H144     1.0000 0.91893  0.90730  0.85049  Biso   1.000  H
  H145     1.0000 0.92254  0.79506  0.82179  Biso   1.000  H
  H146     1.0000 0.97091  0.82351  0.88533  Biso   1.000  H
  C163     1.0000 0.24309  0.23214  0.88071  Biso   1.000  C
  H147     1.0000 0.12719  0.80178  0.88123  Biso   1.000  H
  C164     1.0000 0.27107  0.33062  0.90649  Biso   1.000  C
  H148     1.0000 0.28086  0.18102  0.88679  Biso   1.000  H
  H149     1.0000 0.22410  0.24402  0.83202  Biso   1.000  H
  C165     1.0000 0.29690  0.41082  0.92624  Biso   1.000  C
  H150     1.0000 0.31716  0.47358  0.94170  Biso   1.000  H
  O31      1.0000 0.23522  0.69314  0.40889  Biso   1.000  O
  C166     1.0000 0.16579  0.68094  0.42101  Biso   1.000  C
  C167     1.0000 0.26441  0.79475  0.41408  Biso   1.000  C
  C168     1.0000 0.13548  0.58363  0.40927  Biso   1.000  C
  C169     1.0000 0.12734  0.76083  0.44358  Biso   1.000  C
  H151     1.0000 0.23552  0.84055  0.38542  Biso   1.000  H
  H152     1.0000 0.31199  0.79303  0.40390  Biso   1.000  H
  H153     1.0000 0.26561  0.81960  0.45640  Biso   1.000  H
  C170     1.0000 0.17607  0.49492  0.38292  Biso   1.000  C
  C171     1.0000 0.06607  0.56714  0.41973  Biso   1.000  C
  C172     1.0000 0.05715  0.74574  0.45372  Biso   1.000  C
  H154     1.0000 0.14873  0.82570  0.45211  Biso   1.000  H
  C173     1.0000 0.16446  0.49375  0.31095  Biso   1.000  C
  H155     1.0000 0.16051  0.42864  0.39819  Biso   1.000  H
  H156     1.0000 0.22660  0.50242  0.39829  Biso   1.000  H
  H157     1.0000 0.04553  0.50141  0.41243  Biso   1.000  H
  C174     1.0000 0.02639  0.64835  0.44123  Biso   1.000  C
  C175     1.0000 0.01402  0.83594  0.47512  Biso   1.000  C
  C176     1.0000 0.11048  0.43653  0.27734  Biso   1.000  C
  C177     1.0000 0.20645  0.55620  0.27828  Biso   1.000  C
  O32      1.0000 0.95688  0.63749  0.45169  Biso   1.000  O
  H158     1.0000 0.04543  0.88159  0.50278  Biso   1.000  H
  C178     1.0000 0.97756  0.89831  0.41921  Biso   1.000  C
  H159     1.0000 0.97843  0.80850  0.49868  Biso   1.000  H
  C179     1.0000 0.09794  0.43982  0.21069  Biso   1.000  C
  O33      1.0000 0.07060  0.37564  0.31184  Biso   1.000  O
  C180     1.0000 0.19381  0.56144  0.21258  Biso   1.000  C
  H160     1.0000 0.24340  0.59512  0.30048  Biso   1.000  H
  C181     1.0000 0.92098  0.54479  0.42888  Biso   1.000  C
  C182     1.0000 0.01131  0.98210  0.39480  Biso   1.000  C
  C183     1.0000 0.91008  0.87010  0.38928  Biso   1.000  C
  C184     1.0000 0.13874  0.50305  0.17817  Biso   1.000  C
  H161     1.0000 0.06190  0.39909  0.18858  Biso   1.000  H
  C185     1.0000 0.00041  0.35001  0.28483  Biso   1.000  C
  O34      1.0000 0.23191  0.62420  0.17784  Biso   1.000  O
  H162     1.0000 0.94167  0.48523  0.45301  Biso   1.000  H
  H163     1.0000 0.92633  0.53400  0.38509  Biso   1.000  H
  C186     1.0000 0.84731  0.55338  0.43439  Biso   1.000  C
  C187     1.0000 0.97851  0.03439  0.34149  Biso   1.000  C
  O35      1.0000 0.07732  0.00961  0.42694  Biso   1.000  O
  H164     1.0000 0.88631  0.81491  0.40521  Biso   1.000  H
  C188     1.0000 0.87726  0.92301  0.33588  Biso   1.000  C
  C189     1.0000 0.12333  0.50961  0.10704  Biso   1.000  C
  H165     1.0000 0.00200  0.29600  0.25599  Biso   1.000  H
  C190     1.0000 0.96194  0.31702  0.33428  Biso   1.000  C
  H166     1.0000 0.97303  0.40503  0.25731  Biso   1.000  H
  C191     1.0000 0.28029  0.69705  0.21074  Biso   1.000  C
  C192     1.0000 0.78510  0.55698  0.43764  Biso   1.000  C
  C193     1.0000 0.91176  0.00641  0.31146  Biso   1.000  C
  H167     1.0000 0.00214  0.08973  0.32560  Biso   1.000  H
  C194     1.0000 0.11061  0.10059  0.40441  Biso   1.000  C
  O36      1.0000 0.81082  0.89831  0.30397  Biso   1.000  O
  C195     1.0000 0.07264  0.59731  0.08404  Biso   1.000  C
  H168     1.0000 0.16780  0.51993  0.09069  Biso   1.000  H
  H169     1.0000 0.10300  0.44380  0.09050  Biso   1.000  H
  C196     1.0000 0.93184  0.28803  0.37599  Biso   1.000  C
  H170     1.0000 0.25522  0.74191  0.23572  Biso   1.000  H
  H171     1.0000 0.30133  0.73831  0.18100  Biso   1.000  H
  H172     1.0000 0.31711  0.66015  0.23770  Biso   1.000  H
  H173     1.0000 0.73674  0.55979  0.44019  Biso   1.000  H
  C197     1.0000 0.87735  0.06534  0.25339  Biso   1.000  C
  H174     1.0000 0.12410  0.08621  0.36350  Biso   1.000  H
  H175     1.0000 0.07734  0.15875  0.39998  Biso   1.000  H
  C198     1.0000 0.17205  0.12670  0.44830  Biso   1.000  C
  C199     1.0000 0.77235  0.81851  0.32980  Biso   1.000  C
  C200     1.0000 0.09754  0.69533  0.07160  Biso   1.000  C
  C201     1.0000 0.99851  0.58082  0.07428  Biso   1.000  C
  H176     1.0000 0.90832  0.26528  0.40851  Biso   1.000  H
  C202     1.0000 0.88985  0.01251  0.19292  Biso   1.000  C
  H177     1.0000 0.82644  0.07050  0.25401  Biso   1.000  H
  H178     1.0000 0.89645  0.13569  0.25448  Biso   1.000  H
  C203     1.0000 0.22433  0.15132  0.48487  Biso   1.000  C
  H179     1.0000 0.79801  0.75379  0.33008  Biso   1.000  H
  H180     1.0000 0.72626  0.81085  0.30472  Biso   1.000  H
  H181     1.0000 0.76675  0.83680  0.37208  Biso   1.000  H
  H182     1.0000 0.14641  0.70705  0.07721  Biso   1.000  H
  C204     1.0000 0.05188  0.77654  0.05119  Biso   1.000  C
  O37      1.0000 0.97620  0.48171  0.08772  Biso   1.000  O
  C205     1.0000 0.95244  0.66195  0.05303  Biso   1.000  C
  C206     1.0000 0.84404  0.93364  0.16671  Biso   1.000  C
  C207     1.0000 0.94835  0.03744  0.16285  Biso   1.000  C
  H183     1.0000 0.26451  0.17031  0.51301  Biso   1.000  H
  O38      1.0000 0.07425  0.87541  0.03841  Biso   1.000  O
  C208     1.0000 0.97798  0.76043  0.04186  Biso   1.000  C
  C209     1.0000 0.90183  0.46092  0.07471  Biso   1.000  C
  H184     1.0000 0.90353  0.64984  0.04619  Biso   1.000  H
  C210     1.0000 0.85560  0.88073  0.11308  Biso   1.000  C
  H185     1.0000 0.80484  0.91613  0.18580  Biso   1.000  H
  C211     1.0000 0.95784  0.98726  0.10784  Biso   1.000  C
  O39      1.0000 0.99386  0.11513  0.19038  Biso   1.000  O
  C212     1.0000 0.14795  0.89722  0.05180  Biso   1.000  C
  C213     1.0000 0.92730  0.85055  0.02409  Biso   1.000  C
  C214     1.0000 0.89098  0.35392  0.09290  Biso   1.000  C
  H186     1.0000 0.87421  0.50399  0.09898  Biso   1.000  H
  H187     1.0000 0.88470  0.46702  0.02922  Biso   1.000  H
  C215     1.0000 0.91238  0.90832  0.08216  Biso   1.000  C
  O40      1.0000 0.81424  0.79842  0.08696  Biso   1.000  O
  H188     1.0000 0.99571  0.00680  0.08748  Biso   1.000  H
  C216     1.0000 0.05031  0.15046  0.15512  Biso   1.000  C
  H189     1.0000 0.16398  0.88839  0.09611  Biso   1.000  H
  H190     1.0000 0.15651  0.96795  0.03992  Biso   1.000  H
  H191     1.0000 0.17358  0.85024  0.02852  Biso   1.000  H
  H192     1.0000 0.94805  0.89823  0.99670  Biso   1.000  H
  H193     1.0000 0.88299  0.82414  0.00108  Biso   1.000  H
  C217     1.0000 0.88088  0.26684  0.10742  Biso   1.000  C
  C218     1.0000 0.75697  0.76794  0.11930  Biso   1.000  C
  H194     1.0000 0.08113  0.09270  0.14951  Biso   1.000  H
  H195     1.0000 0.07752  0.20494  0.17822  Biso   1.000  H
  H196     1.0000 0.02910  0.17649  0.11468  Biso   1.000  H
  H197     1.0000 0.87292  0.19822  0.11878  Biso   1.000  H
  C219     1.0000 0.72904  0.66945  0.09351  Biso   1.000  C
  H198     1.0000 0.71914  0.81906  0.11322  Biso   1.000  H
  H199     1.0000 0.77601  0.75598  0.16799  Biso   1.000  H
  C220     1.0000 0.70321  0.58918  0.07377  Biso   1.000  C
  H200     1.0000 0.68290  0.52642  0.05831  Biso   1.000  H
