data_image0
_cell_length_a       12.696
_cell_length_b       20.768
_cell_length_c       21.372
_cell_angle_alpha    82.54
_cell_angle_beta     89.86
_cell_angle_gamma    89.33

_symmetry_space_group_name_H-M    "P 1"
_symmetry_int_tables_number       1

loop_
  _symmetry_equiv_pos_as_xyz
  'x, y, z'

loop_
  _atom_site_label
  _atom_site_occupancy
  _atom_site_fract_x
  _atom_site_fract_y
  _atom_site_fract_z
  _atom_site_thermal_displace_type
  _atom_site_B_iso_or_equiv
  _atom_site_type_symbol
  O1       1.0000 0.55861  0.36373  0.58482  Biso   1.000  O
  C1       1.0000 0.59554  0.33003  0.53471  Biso   1.000  C
  C2       1.0000 0.62624  0.36689  0.63508  Biso   1.000  C
  C3       1.0000 0.51411  0.34001  0.48308  Biso   1.000  C
  H1       1.0000 0.60721  0.28484  0.55033  Biso   1.000  H
  H2       1.0000 0.66683  0.34944  0.51880  Biso   1.000  H
  C4       1.0000 0.60327  0.41459  0.67377  Biso   1.000  C
  C5       1.0000 0.71111  0.32452  0.64872  Biso   1.000  C
  H3       1.0000 0.53809  0.31711  0.44722  Biso   1.000  H
  H4       1.0000 0.44641  0.31860  0.49912  Biso   1.000  H
  H5       1.0000 0.50122  0.38672  0.47081  Biso   1.000  H
  C6       1.0000 0.66890  0.41899  0.72521  Biso   1.000  C
  C7       1.0000 0.50849  0.45961  0.66160  Biso   1.000  C
  C8       1.0000 0.77565  0.32814  0.70091  Biso   1.000  C
  H6       1.0000 0.72464  0.29031  0.62220  Biso   1.000  H
  C9       1.0000 0.75346  0.37654  0.73908  Biso   1.000  C
  H7       1.0000 0.65165  0.45004  0.75343  Biso   1.000  H
  C10      1.0000 0.41225  0.43490  0.69911  Biso   1.000  C
  H8       1.0000 0.52690  0.50364  0.67302  Biso   1.000  H
  H9       1.0000 0.48971  0.46354  0.61342  Biso   1.000  H
  C11      1.0000 0.86629  0.28051  0.71648  Biso   1.000  C
  O2       1.0000 0.82282  0.37992  0.78802  Biso   1.000  O
  C12      1.0000 0.39382  0.45028  0.76027  Biso   1.000  C
  C13      1.0000 0.33873  0.39641  0.67396  Biso   1.000  C
  C14      1.0000 0.83829  0.22608  0.76811  Biso   1.000  C
  H10      1.0000 0.88611  0.26152  0.67769  Biso   1.000  H
  H11      1.0000 0.92626  0.30445  0.73191  Biso   1.000  H
  C15      1.0000 0.79182  0.41737  0.83714  Biso   1.000  C
  O3       1.0000 0.46837  0.48853  0.78354  Biso   1.000  O
  C16      1.0000 0.30463  0.42824  0.79364  Biso   1.000  C
  C17      1.0000 0.25019  0.37328  0.70766  Biso   1.000  C
  H12      1.0000 0.35159  0.38401  0.63201  Biso   1.000  H
  C18      1.0000 0.86477  0.22830  0.83082  Biso   1.000  C
  C19      1.0000 0.78054  0.17251  0.75390  Biso   1.000  C
  H13      1.0000 0.76737  0.46375  0.81983  Biso   1.000  H
  H14      1.0000 0.85688  0.42033  0.86041  Biso   1.000  H
  C20      1.0000 0.70706  0.38389  0.87872  Biso   1.000  C
  C21      1.0000 0.45364  0.50421  0.84639  Biso   1.000  C
  H15      1.0000 0.29195  0.43994  0.83512  Biso   1.000  H
  C22      1.0000 0.23152  0.38892  0.76825  Biso   1.000  C
  O4       1.0000 0.17858  0.33406  0.68147  Biso   1.000  O
  C23      1.0000 0.83249  0.18026  0.87858  Biso   1.000  C
  H16      1.0000 0.90335  0.26394  0.84234  Biso   1.000  H
  O5       1.0000 0.75963  0.17131  0.69076  Biso   1.000  O
  C24      1.0000 0.74770  0.12499  0.80137  Biso   1.000  C
  H17      1.0000 0.73057  0.34105  0.89623  Biso   1.000  H
  H18      1.0000 0.63615  0.38184  0.85512  Biso   1.000  H
  H19      1.0000 0.69136  0.41074  0.91491  Biso   1.000  H
  H20      1.0000 0.38574  0.52844  0.84889  Biso   1.000  H
  H21      1.0000 0.45494  0.46256  0.87702  Biso   1.000  H
  C25      1.0000 0.54397  0.54688  0.85970  Biso   1.000  C
  C26      1.0000 0.13862  0.36195  0.80760  Biso   1.000  C
  C27      1.0000 0.22445  0.27330  0.66953  Biso   1.000  C
  O6       1.0000 0.85551  0.18636  0.94143  Biso   1.000  O
  C28      1.0000 0.77242  0.12847  0.86475  Biso   1.000  C
  C29      1.0000 0.70714  0.11523  0.67406  Biso   1.000  C
  H22      1.0000 0.70387  0.08815  0.79099  Biso   1.000  H
  H23      1.0000 0.54210  0.58975  0.82823  Biso   1.000  H
  H24      1.0000 0.53842  0.55584  0.90472  Biso   1.000  H
  H25      1.0000 0.61376  0.52295  0.85611  Biso   1.000  H
  H26      1.0000 0.08537  0.34372  0.77929  Biso   1.000  H
  H27      1.0000 0.10745  0.39775  0.82723  Biso   1.000  H
  C30      1.0000 0.17465  0.30794  0.85786  Biso   1.000  C
  H28      1.0000 0.26833  0.28121  0.63083  Biso   1.000  H
  H29      1.0000 0.27241  0.25762  0.70761  Biso   1.000  H
  C31      1.0000 0.13788  0.22623  0.66141  Biso   1.000  C
  C32      1.0000 0.96453  0.17424  0.95790  Biso   1.000  C
  C33      1.0000 0.72851  0.07809  0.91562  Biso   1.000  C
  H30      1.0000 0.75123  0.07531  0.69029  Biso   1.000  H
  H31      1.0000 0.63593  0.11131  0.69440  Biso   1.000  H
  C34      1.0000 0.69916  0.12337  0.60304  Biso   1.000  C
  C35      1.0000 0.20844  0.31999  0.91732  Biso   1.000  C
  C36      1.0000 0.17869  0.24433  0.84380  Biso   1.000  C
  H32      1.0000 0.16860  0.18155  0.65740  Biso   1.000  H
  H33      1.0000 0.09259  0.22215  0.69949  Biso   1.000  H
  H34      1.0000 0.09390  0.23982  0.62380  Biso   1.000  H
  H35      1.0000 0.97189  0.19244  0.99900  Biso   1.000  H
  C37      1.0000 0.99382  0.10350  0.96404  Biso   1.000  C
  H36      1.0000 0.01150  0.20025  0.92690  Biso   1.000  H
  C38      1.0000 0.61813  0.09613  0.93487  Biso   1.000  C
  H37      1.0000 0.72650  0.03445  0.89991  Biso   1.000  H
  H38      1.0000 0.77276  0.07496  0.95314  Biso   1.000  H
  H39      1.0000 0.65989  0.16192  0.58841  Biso   1.000  H
  H40      1.0000 0.77125  0.12662  0.58232  Biso   1.000  H
  H41      1.0000 0.66218  0.08754  0.58789  Biso   1.000  H
  O7       1.0000 0.19875  0.38376  0.92940  Biso   1.000  O
  C39      1.0000 0.24987  0.26975  0.95993  Biso   1.000  C
  C40      1.0000 0.21728  0.19370  0.88688  Biso   1.000  C
  H42      1.0000 0.15416  0.23444  0.80251  Biso   1.000  H
  H43      1.0000 0.98197  0.08525  0.92331  Biso   1.000  H
  H44      1.0000 0.95358  0.07894  0.99863  Biso   1.000  H
  H45      1.0000 0.06928  0.09763  0.97121  Biso   1.000  H
  C41      1.0000 0.60133  0.15376  0.96055  Biso   1.000  C
  C42      1.0000 0.53196  0.05674  0.92732  Biso   1.000  C
  C43      1.0000 0.22311  0.39790  0.99122  Biso   1.000  C
  C44      1.0000 0.25635  0.20617  0.94530  Biso   1.000  C
  H46      1.0000 0.27829  0.27832  0.00033  Biso   1.000  H
  O8       1.0000 0.21776  0.12972  0.87626  Biso   1.000  O
  C45      1.0000 0.50142  0.17267  0.97834  Biso   1.000  C
  H47      1.0000 0.66343  0.17982  0.96663  Biso   1.000  H
  O9       1.0000 0.55234  0.00201  0.89906  Biso   1.000  O
  C46      1.0000 0.43198  0.07485  0.94677  Biso   1.000  C
  H48      1.0000 0.29803  0.38713  0.99971  Biso   1.000  H
  C47      1.0000 0.19835  0.46890  0.99320  Biso   1.000  C
  H49      1.0000 0.17949  0.36921  0.02463  Biso   1.000  H
  C48      1.0000 0.30516  0.15214  0.99108  Biso   1.000  C
  C49      1.0000 0.16313  0.11514  0.82138  Biso   1.000  C
  C50      1.0000 0.41486  0.13266  0.97178  Biso   1.000  C
  O10      1.0000 0.48149  0.22911  0.00387  Biso   1.000  O
  C51      1.0000 0.46662  0.95990  0.89094  Biso   1.000  C
  H50      1.0000 0.37047  0.04692  0.94172  Biso   1.000  H
  H51      1.0000 0.24186  0.49414  0.96290  Biso   1.000  H
  H52      1.0000 0.12287  0.48033  0.98480  Biso   1.000  H
  H53      1.0000 0.21736  0.47912  0.03600  Biso   1.000  H
  H54      1.0000 0.25896  0.11265  0.99433  Biso   1.000  H
  H55      1.0000 0.30706  0.16672  0.03440  Biso   1.000  H
  H56      1.0000 0.20318  0.13402  0.78250  Biso   1.000  H
  H57      1.0000 0.09195  0.13473  0.82110  Biso   1.000  H
  C52      1.0000 0.15979  0.04211  0.82596  Biso   1.000  C
  C53      1.0000 0.56777  0.27161  0.00726  Biso   1.000  C
  H58      1.0000 0.40800  0.98652  0.86650  Biso   1.000  H
  H59      1.0000 0.43709  0.94232  0.93384  Biso   1.000  H
  C54      1.0000 0.50906  0.90659  0.85630  Biso   1.000  C
  H60      1.0000 0.11599  0.02564  0.86489  Biso   1.000  H
  H61      1.0000 0.23267  0.02383  0.82761  Biso   1.000  H
  H62      1.0000 0.12466  0.02935  0.78811  Biso   1.000  H
  H63      1.0000 0.60268  0.27975  0.96470  Biso   1.000  H
  H64      1.0000 0.62390  0.24967  0.03992  Biso   1.000  H
  C55      1.0000 0.52633  0.33397  0.02708  Biso   1.000  C
  H65      1.0000 0.53674  0.92583  0.81430  Biso   1.000  H
  H66      1.0000 0.45284  0.87451  0.84701  Biso   1.000  H
  H67      1.0000 0.56631  0.88133  0.88070  Biso   1.000  H
  H68      1.0000 0.47733  0.35363  0.99419  Biso   1.000  H
  H69      1.0000 0.58588  0.36579  0.03152  Biso   1.000  H
  H70      1.0000 0.48500  0.32398  0.06800  Biso   1.000  H
  O11      1.0000 0.44122  0.63631  0.41522  Biso   1.000  O
  C56      1.0000 0.37360  0.63316  0.36492  Biso   1.000  C
  C57      1.0000 0.40430  0.67002  0.46529  Biso   1.000  C
  C58      1.0000 0.39656  0.58546  0.32622  Biso   1.000  C
  C59      1.0000 0.28872  0.67553  0.35128  Biso   1.000  C
  H71      1.0000 0.39263  0.71525  0.44972  Biso   1.000  H
  H72      1.0000 0.33301  0.65061  0.48119  Biso   1.000  H
  C60      1.0000 0.48572  0.66004  0.51692  Biso   1.000  C
  C61      1.0000 0.49134  0.54044  0.33844  Biso   1.000  C
  C62      1.0000 0.33093  0.58106  0.27479  Biso   1.000  C
  C63      1.0000 0.22418  0.67196  0.29909  Biso   1.000  C
  H73      1.0000 0.27520  0.70974  0.37780  Biso   1.000  H
  H74      1.0000 0.46166  0.68294  0.55283  Biso   1.000  H
  H75      1.0000 0.55343  0.68144  0.50092  Biso   1.000  H
  H76      1.0000 0.49862  0.61333  0.52918  Biso   1.000  H
  C64      1.0000 0.58759  0.56514  0.30093  Biso   1.000  C
  H77      1.0000 0.47293  0.49641  0.32702  Biso   1.000  H
  H78      1.0000 0.51012  0.53650  0.38662  Biso   1.000  H
  C65      1.0000 0.24637  0.62350  0.26096  Biso   1.000  C
  H79      1.0000 0.34818  0.55001  0.24661  Biso   1.000  H
  C66      1.0000 0.13354  0.71954  0.28356  Biso   1.000  C
  C67      1.0000 0.60601  0.54982  0.23972  Biso   1.000  C
  C68      1.0000 0.66110  0.60364  0.32603  Biso   1.000  C
  O12      1.0000 0.17701  0.62017  0.21198  Biso   1.000  O
  C69      1.0000 0.16154  0.77397  0.23189  Biso   1.000  C
  H80      1.0000 0.11372  0.73853  0.32231  Biso   1.000  H
  H81      1.0000 0.07357  0.69565  0.26808  Biso   1.000  H
  O13      1.0000 0.53146  0.51151  0.21651  Biso   1.000  O
  C70      1.0000 0.69521  0.57186  0.20636  Biso   1.000  C
  C71      1.0000 0.74965  0.62682  0.29239  Biso   1.000  C
  H82      1.0000 0.64825  0.61604  0.36798  Biso   1.000  H
  C72      1.0000 0.20802  0.58272  0.16290  Biso   1.000  C
  C73      1.0000 0.13506  0.77175  0.16922  Biso   1.000  C
  C74      1.0000 0.21930  0.82754  0.24614  Biso   1.000  C
  C75      1.0000 0.54620  0.49583  0.15365  Biso   1.000  C
  H83      1.0000 0.70789  0.56011  0.16488  Biso   1.000  H
  C76      1.0000 0.76831  0.61113  0.23175  Biso   1.000  C
  O14      1.0000 0.82125  0.66603  0.31858  Biso   1.000  O
  H84      1.0000 0.23246  0.53629  0.18022  Biso   1.000  H
  H85      1.0000 0.14295  0.57972  0.13959  Biso   1.000  H
  C77      1.0000 0.29277  0.61615  0.12132  Biso   1.000  C
  C78      1.0000 0.16734  0.81979  0.12142  Biso   1.000  C
  H86      1.0000 0.09649  0.73611  0.15771  Biso   1.000  H
  O15      1.0000 0.24020  0.82879  0.30923  Biso   1.000  O
  C79      1.0000 0.25214  0.87510  0.19867  Biso   1.000  C
  C80      1.0000 0.45586  0.45316  0.14034  Biso   1.000  C
  H87      1.0000 0.61410  0.47161  0.15110  Biso   1.000  H
  H88      1.0000 0.54490  0.53753  0.12302  Biso   1.000  H
  C81      1.0000 0.86122  0.63810  0.19239  Biso   1.000  C
  C82      1.0000 0.77538  0.72675  0.33052  Biso   1.000  C
  H89      1.0000 0.26926  0.65904  0.10382  Biso   1.000  H
  H90      1.0000 0.36368  0.61820  0.14492  Biso   1.000  H
  H91      1.0000 0.30848  0.58931  0.08508  Biso   1.000  H
  O16      1.0000 0.14432  0.81369  0.05856  Biso   1.000  O
  C83      1.0000 0.22742  0.87158  0.13529  Biso   1.000  C
  C84      1.0000 0.29270  0.88482  0.32599  Biso   1.000  C
  H92      1.0000 0.29597  0.91195  0.20900  Biso   1.000  H
  H93      1.0000 0.45773  0.41034  0.17182  Biso   1.000  H
  H94      1.0000 0.46134  0.44420  0.09532  Biso   1.000  H
  H95      1.0000 0.38608  0.47710  0.14388  Biso   1.000  H
  H96      1.0000 0.91447  0.65633  0.22071  Biso   1.000  H
  H97      1.0000 0.89238  0.60234  0.17281  Biso   1.000  H
  C85      1.0000 0.82518  0.69210  0.14218  Biso   1.000  C
  H98      1.0000 0.73150  0.71883  0.36921  Biso   1.000  H
  H99      1.0000 0.72743  0.74243  0.29239  Biso   1.000  H
  C86      1.0000 0.86196  0.77382  0.33859  Biso   1.000  C
  C87      1.0000 0.03531  0.82580  0.04214  Biso   1.000  C
  C88      1.0000 0.27132  0.92196  0.08438  Biso   1.000  C
  H100     1.0000 0.24860  0.92474  0.30971  Biso   1.000  H
  H101     1.0000 0.36391  0.88874  0.30560  Biso   1.000  H
  C89      1.0000 0.30067  0.87668  0.39696  Biso   1.000  C
  C90      1.0000 0.79139  0.68011  0.08268  Biso   1.000  C
  C91      1.0000 0.82115  0.75576  0.15624  Biso   1.000  C
  H102     1.0000 0.83123  0.81855  0.34260  Biso   1.000  H
  H103     1.0000 0.90725  0.77795  0.30050  Biso   1.000  H
  H104     1.0000 0.90593  0.76023  0.37620  Biso   1.000  H
  H105     1.0000 0.02795  0.80761  0.00099  Biso   1.000  H
  C92      1.0000 0.00602  0.89654  0.03601  Biso   1.000  C
  H106     1.0000 0.98834  0.79980  0.07310  Biso   1.000  H
  C93      1.0000 0.38170  0.90392  0.06512  Biso   1.000  C
  H107     1.0000 0.27334  0.96560  0.10009  Biso   1.000  H
  H108     1.0000 0.22707  0.92513  0.04691  Biso   1.000  H
  H109     1.0000 0.33995  0.83813  0.41159  Biso   1.000  H
  H110     1.0000 0.22858  0.87343  0.41772  Biso   1.000  H
  H111     1.0000 0.33758  0.91256  0.41211  Biso   1.000  H
  O17      1.0000 0.80109  0.61629  0.07060  Biso   1.000  O
  C94      1.0000 0.74996  0.73035  0.04006  Biso   1.000  C
  C95      1.0000 0.78255  0.80635  0.11311  Biso   1.000  C
  H112     1.0000 0.84568  0.76561  0.19749  Biso   1.000  H
  H113     1.0000 0.01787  0.91485  0.07668  Biso   1.000  H
  H114     1.0000 0.04625  0.92110  0.00142  Biso   1.000  H
  H115     1.0000 0.93056  0.90242  0.02879  Biso   1.000  H
  C96      1.0000 0.39850  0.84633  0.03950  Biso   1.000  C
  C97      1.0000 0.46787  0.94336  0.07267  Biso   1.000  C
  C98      1.0000 0.77672  0.60220  0.00878  Biso   1.000  C
  C99      1.0000 0.74349  0.79393  0.05469  Biso   1.000  C
  H116     1.0000 0.72154  0.72177  0.99972  Biso   1.000  H
  O18      1.0000 0.78207  0.87033  0.12373  Biso   1.000  O
  C100     1.0000 0.49842  0.82738  0.02166  Biso   1.000  C
  H117     1.0000 0.33641  0.82023  0.03341  Biso   1.000  H
  C101     1.0000 0.56786  0.92520  0.05328  Biso   1.000  C
  O19      1.0000 0.44749  0.99804  0.10094  Biso   1.000  O
  H118     1.0000 0.70181  0.61292  0.00028  Biso   1.000  H
  C102     1.0000 0.80148  0.53120  0.00680  Biso   1.000  C
  H119     1.0000 0.82034  0.63088  0.97541  Biso   1.000  H
  C103     1.0000 0.69468  0.84796  0.00892  Biso   1.000  C
  C104     1.0000 0.83670  0.88495  0.17861  Biso   1.000  C
  C105     1.0000 0.58498  0.86738  0.02827  Biso   1.000  C
  O20      1.0000 0.51835  0.77099  0.99613  Biso   1.000  O
  H120     1.0000 0.62937  0.95313  0.05828  Biso   1.000  H
  C106     1.0000 0.53322  0.04015  0.10906  Biso   1.000  C
  H121     1.0000 0.75797  0.50591  0.03709  Biso   1.000  H
  H122     1.0000 0.87697  0.51972  0.01520  Biso   1.000  H
  H123     1.0000 0.78240  0.52098  0.96399  Biso   1.000  H
  H124     1.0000 0.74088  0.88744  0.00571  Biso   1.000  H
  H125     1.0000 0.69269  0.83338  0.96560  Biso   1.000  H
  H126     1.0000 0.79665  0.86603  0.21750  Biso   1.000  H
  H127     1.0000 0.90789  0.86532  0.17890  Biso   1.000  H
  C107     1.0000 0.84005  0.95794  0.17404  Biso   1.000  C
  C108     1.0000 0.43206  0.72844  0.99273  Biso   1.000  C
  H128     1.0000 0.59183  0.01353  0.13350  Biso   1.000  H
  H129     1.0000 0.56275  0.05772  0.06621  Biso   1.000  H
  C109     1.0000 0.49078  0.09345  0.14374  Biso   1.000  C
  H130     1.0000 0.88385  0.97441  0.13510  Biso   1.000  H
  H131     1.0000 0.76716  0.97622  0.17238  Biso   1.000  H
  H132     1.0000 0.87517  0.97075  0.21188  Biso   1.000  H
  H133     1.0000 0.39715  0.72030  0.03530  Biso   1.000  H
  H134     1.0000 0.37593  0.75038  0.96008  Biso   1.000  H
  C110     1.0000 0.47351  0.66607  0.97296  Biso   1.000  C
  H135     1.0000 0.46309  0.07422  0.18569  Biso   1.000  H
  H136     1.0000 0.54700  0.12554  0.15299  Biso   1.000  H
  H137     1.0000 0.43353  0.11872  0.11930  Biso   1.000  H
  H138     1.0000 0.52250  0.64642  0.00580  Biso   1.000  H
  H139     1.0000 0.41396  0.63426  0.96848  Biso   1.000  H
  H140     1.0000 0.51484  0.67607  0.93200  Biso   1.000  H
  C111     1.0000 0.69271  0.40892  0.34647  Biso   1.000  C
  O21      1.0000 0.65379  0.37912  0.29409  Biso   1.000  O
  H141     1.0000 0.71782  0.45411  0.33151  Biso   1.000  H
  H142     1.0000 0.62792  0.41381  0.37181  Biso   1.000  H
  C112     1.0000 0.77503  0.36714  0.38309  Biso   1.000  C
  C113     1.0000 0.71935  0.37677  0.24289  Biso   1.000  C
  H143     1.0000 0.75047  0.32273  0.39469  Biso   1.000  H
  H144     1.0000 0.84035  0.36290  0.35892  Biso   1.000  H
  H145     1.0000 0.79206  0.38681  0.42221  Biso   1.000  H
  C114     1.0000 0.69504  0.33013  0.20376  Biso   1.000  C
  C115     1.0000 0.80296  0.41856  0.22811  Biso   1.000  C
  C116     1.0000 0.60704  0.28195  0.22127  Biso   1.000  C
  C117     1.0000 0.75501  0.32765  0.14954  Biso   1.000  C
  C118     1.0000 0.86389  0.41579  0.17427  Biso   1.000  C
  H146     1.0000 0.81964  0.45090  0.25600  Biso   1.000  H
  H147     1.0000 0.58434  0.26261  0.18182  Biso   1.000  H
  H148     1.0000 0.54409  0.30414  0.23722  Biso   1.000  H
  C119     1.0000 0.64110  0.22820  0.27219  Biso   1.000  C
  H149     1.0000 0.74032  0.29432  0.12401  Biso   1.000  H
  C120     1.0000 0.83894  0.36955  0.13473  Biso   1.000  C
  C121     1.0000 0.95562  0.46154  0.15978  Biso   1.000  C
  C122     1.0000 0.61358  0.22856  0.33509  Biso   1.000  C
  C123     1.0000 0.70617  0.17713  0.25718  Biso   1.000  C
  O22      1.0000 0.90371  0.36713  0.08287  Biso   1.000  O
  H150     1.0000 0.97581  0.46219  0.11311  Biso   1.000  H
  H151     1.0000 0.93317  0.50540  0.16710  Biso   1.000  H
  C124     1.0000 0.05178  0.44144  0.19994  Biso   1.000  C
  H152     1.0000 0.56587  0.26180  0.34722  Biso   1.000  H
  C125     1.0000 0.65154  0.18142  0.38228  Biso   1.000  C
  O23      1.0000 0.72769  0.17762  0.19404  Biso   1.000  O
  C126     1.0000 0.74468  0.13030  0.30423  Biso   1.000  C
  C127     1.0000 0.86795  0.33234  0.03402  Biso   1.000  C
  C128     1.0000 0.06990  0.46610  0.25685  Biso   1.000  C
  C129     1.0000 0.12422  0.39744  0.18041  Biso   1.000  C
  O24      1.0000 0.62623  0.18571  0.44533  Biso   1.000  O
  C130     1.0000 0.71847  0.13212  0.36775  Biso   1.000  C
  C131     1.0000 0.78230  0.12257  0.17540  Biso   1.000  C
  H153     1.0000 0.79208  0.09663  0.29352  Biso   1.000  H
  H154     1.0000 0.86278  0.28631  0.05021  Biso   1.000  H
  H155     1.0000 0.79626  0.34849  0.02128  Biso   1.000  H
  C132     1.0000 0.94650  0.34270  0.98098  Biso   1.000  C
  O25      1.0000 0.99582  0.50970  0.27370  Biso   1.000  O
  C133     1.0000 0.15998  0.44731  0.29192  Biso   1.000  C
  C134     1.0000 0.21260  0.37709  0.21665  Biso   1.000  C
  H156     1.0000 0.11208  0.38190  0.14029  Biso   1.000  H
  C135     1.0000 0.51792  0.17073  0.46118  Biso   1.000  C
  C136     1.0000 0.76702  0.08265  0.41834  Biso   1.000  C
  H157     1.0000 0.74171  0.08342  0.19201  Biso   1.000  H
  H158     1.0000 0.85145  0.11900  0.19419  Biso   1.000  H
  C137     1.0000 0.78839  0.13220  0.10443  Biso   1.000  C
  H159     1.0000 0.92355  0.31918  0.94479  Biso   1.000  H
  H160     1.0000 0.95815  0.39128  0.96810  Biso   1.000  H
  H161     1.0000 0.01602  0.32477  0.99519  Biso   1.000  H
  C138     1.0000 0.01429  0.54095  0.32882  Biso   1.000  C
  H162     1.0000 0.17167  0.46591  0.33151  Biso   1.000  H
  C139     1.0000 0.23196  0.40285  0.27257  Biso   1.000  C
  O26      1.0000 0.28403  0.33140  0.20074  Biso   1.000  O
  H163     1.0000 0.50804  0.18812  0.50262  Biso   1.000  H
  H164     1.0000 0.47124  0.19652  0.42961  Biso   1.000  H
  C140     1.0000 0.49650  0.09935  0.46600  Biso   1.000  C
  H165     1.0000 0.72080  0.07773  0.45731  Biso   1.000  H
  H166     1.0000 0.77185  0.03902  0.40361  Biso   1.000  H
  C141     1.0000 0.87556  0.10279  0.43806  Biso   1.000  C
  H167     1.0000 0.82370  0.09329  0.08961  Biso   1.000  H
  H168     1.0000 0.82717  0.17153  0.08900  Biso   1.000  H
  H169     1.0000 0.71625  0.13582  0.08522  Biso   1.000  H
  H170     1.0000 0.97155  0.58244  0.32179  Biso   1.000  H
  C142     1.0000 0.98105  0.49947  0.38847  Biso   1.000  C
  H171     1.0000 0.09121  0.55483  0.33089  Biso   1.000  H
  C143     1.0000 0.32595  0.38047  0.31391  Biso   1.000  C
  C144     1.0000 0.27225  0.30382  0.14766  Biso   1.000  C
  C145     1.0000 0.24578  0.27823  0.17342  Biso   1.000  C
  H172     1.0000 0.53742  0.07341  0.50012  Biso   1.000  H
  H173     1.0000 0.51393  0.08240  0.42419  Biso   1.000  H
  H174     1.0000 0.42303  0.09263  0.47449  Biso   1.000  H
  C146     1.0000 0.88642  0.15948  0.46571  Biso   1.000  C
  C147     1.0000 0.96516  0.06553  0.42938  Biso   1.000  C
  H175     1.0000 0.99331  0.52644  0.42409  Biso   1.000  H
  H176     1.0000 0.90392  0.49301  0.38559  Biso   1.000  H
  H177     1.0000 0.02305  0.45594  0.39531  Biso   1.000  H
  C148     1.0000 0.29547  0.32420  0.36279  Biso   1.000  C
  H178     1.0000 0.38469  0.36604  0.28819  Biso   1.000  H
  H179     1.0000 0.34979  0.41832  0.33519  Biso   1.000  H
  C149     1.0000 0.33671  0.23872  0.15521  Biso   1.000  C
  H180     1.0000 0.19691  0.29530  0.14081  Biso   1.000  H
  H181     1.0000 0.29831  0.33321  0.11080  Biso   1.000  H
  H182     1.0000 0.20310  0.29391  0.13572  Biso   1.000  H
  H183     1.0000 0.20048  0.25143  0.20391  Biso   1.000  H
  H184     1.0000 0.82447  0.18511  0.47180  Biso   1.000  H
  C150     1.0000 0.98473  0.17966  0.48407  Biso   1.000  C
  O27      1.0000 0.95041  0.01110  0.39988  Biso   1.000  O
  C151     1.0000 0.06348  0.08501  0.44896  Biso   1.000  C
  C152     1.0000 0.30100  0.26073  0.34835  Biso   1.000  C
  C153     1.0000 0.25667  0.33490  0.42183  Biso   1.000  C
  H185     1.0000 0.29466  0.20429  0.17861  Biso   1.000  H
  H186     1.0000 0.35389  0.22692  0.11340  Biso   1.000  H
  H187     1.0000 0.40197  0.24411  0.17828  Biso   1.000  H
  H188     1.0000 0.37837  0.22310  0.19282  Biso   1.000  H
  H189     1.0000 0.31065  0.20150  0.13609  Biso   1.000  H
  H190     1.0000 0.38091  0.26552  0.12472  Biso   1.000  H
  O28      1.0000 0.00009  0.23546  0.51121  Biso   1.000  O
  C154     1.0000 0.07472  0.14210  0.47581  Biso   1.000  C
  C155     1.0000 0.03889  0.96996  0.39248  Biso   1.000  C
  H191     1.0000 0.12412  0.05739  0.44410  Biso   1.000  H
  C156     1.0000 0.26716  0.20872  0.39130  Biso   1.000  C
  H192     1.0000 0.32889  0.25290  0.30749  Biso   1.000  H
  C157     1.0000 0.22156  0.28318  0.46435  Biso   1.000  C
  O29      1.0000 0.25532  0.39881  0.43367  Biso   1.000  O
  C158     1.0000 0.91006  0.27434  0.52149  Biso   1.000  C
  C159     1.0000 0.18237  0.16380  0.49502  Biso   1.000  C
  H193     1.0000 0.09624  0.99573  0.36789  Biso   1.000  H
  H194     1.0000 0.06576  0.95223  0.43509  Biso   1.000  H
  C160     1.0000 0.00068  0.91627  0.35751  Biso   1.000  C
  C161     1.0000 0.22497  0.21961  0.44962  Biso   1.000  C
  O30      1.0000 0.27434  0.14476  0.38054  Biso   1.000  O
  H195     1.0000 0.19414  0.29162  0.50502  Biso   1.000  H
  C162     1.0000 0.24307  0.41191  0.49710  Biso   1.000  C
  H196     1.0000 0.86922  0.28104  0.48110  Biso   1.000  H
  H197     1.0000 0.86630  0.24885  0.55660  Biso   1.000  H
  C163     1.0000 0.94737  0.33764  0.54004  Biso   1.000  C
  H198     1.0000 0.23155  0.12480  0.49752  Biso   1.000  H
  H199     1.0000 0.17831  0.17740  0.53740  Biso   1.000  H
  H200     1.0000 0.94274  0.89313  0.38110  Biso   1.000  H
  H201     1.0000 0.97469  0.93343  0.31480  Biso   1.000  H
  H202     1.0000 0.05761  0.88551  0.35090  Biso   1.000  H
  C164     1.0000 0.32484  0.13162  0.32353  Biso   1.000  C
  H203     1.0000 0.16915  0.40241  0.51229  Biso   1.000  H
  H204     1.0000 0.29352  0.38313  0.52470  Biso   1.000  H
  C165     1.0000 0.26929  0.48222  0.49813  Biso   1.000  C
  H205     1.0000 0.98709  0.36052  0.50540  Biso   1.000  H
  H206     1.0000 0.88693  0.36633  0.54660  Biso   1.000  H
  H207     1.0000 0.99323  0.33240  0.57963  Biso   1.000  H
  H208     1.0000 0.39614  0.15173  0.32193  Biso   1.000  H
  H209     1.0000 0.28150  0.15280  0.28720  Biso   1.000  H
  C166     1.0000 0.33032  0.05888  0.32556  Biso   1.000  C
  H210     1.0000 0.26039  0.49325  0.54240  Biso   1.000  H
  H211     1.0000 0.34495  0.49151  0.48152  Biso   1.000  H
  H212     1.0000 0.22391  0.50912  0.47010  Biso   1.000  H
  H213     1.0000 0.25868  0.03953  0.32910  Biso   1.000  H
  H214     1.0000 0.37347  0.03950  0.36072  Biso   1.000  H
  H215     1.0000 0.35773  0.04650  0.28559  Biso   1.000  H
  C167     1.0000 0.30713  0.59118  0.65358  Biso   1.000  C
  O31      1.0000 0.34604  0.62098  0.70591  Biso   1.000  O
  H216     1.0000 0.28202  0.54594  0.66849  Biso   1.000  H
  H217     1.0000 0.37191  0.58624  0.62819  Biso   1.000  H
  C168     1.0000 0.22480  0.63291  0.61696  Biso   1.000  C
  C169     1.0000 0.28049  0.62333  0.75711  Biso   1.000  C
  H218     1.0000 0.24936  0.67732  0.60530  Biso   1.000  H
  H219     1.0000 0.15948  0.63714  0.64112  Biso   1.000  H
  H220     1.0000 0.20777  0.61324  0.57779  Biso   1.000  H
  C170     1.0000 0.19687  0.58148  0.77193  Biso   1.000  C
  C171     1.0000 0.30480  0.66991  0.79628  Biso   1.000  C
  C172     1.0000 0.13595  0.58426  0.82572  Biso   1.000  C
  H221     1.0000 0.18020  0.54915  0.74399  Biso   1.000  H
  C173     1.0000 0.24482  0.67240  0.85050  Biso   1.000  C
  C174     1.0000 0.39280  0.71810  0.77872  Biso   1.000  C
  C175     1.0000 0.04421  0.53850  0.84026  Biso   1.000  C
  C176     1.0000 0.16089  0.63050  0.86527  Biso   1.000  C
  H222     1.0000 0.25952  0.70573  0.87603  Biso   1.000  H
  H223     1.0000 0.41550  0.73743  0.81822  Biso   1.000  H
  H224     1.0000 0.45575  0.69596  0.76282  Biso   1.000  H
  C177     1.0000 0.35874  0.77190  0.72781  Biso   1.000  C
  C178     1.0000 0.94806  0.55861  0.80005  Biso   1.000  C
  H225     1.0000 0.02403  0.53785  0.88693  Biso   1.000  H
  H226     1.0000 0.06667  0.49465  0.83290  Biso   1.000  H
  O32      1.0000 0.09612  0.63292  0.91713  Biso   1.000  O
  C179     1.0000 0.38626  0.77154  0.66490  Biso   1.000  C
  C180     1.0000 0.29366  0.82292  0.74281  Biso   1.000  C
  C181     1.0000 0.92994  0.53395  0.74314  Biso   1.000  C
  C182     1.0000 0.87562  0.60261  0.81959  Biso   1.000  C
  C183     1.0000 0.13188  0.66775  0.96602  Biso   1.000  C
  H227     1.0000 0.43397  0.73824  0.65282  Biso   1.000  H
  C184     1.0000 0.34829  0.81868  0.61771  Biso   1.000  C
  O33      1.0000 0.27215  0.82243  0.80595  Biso   1.000  O
  C185     1.0000 0.25516  0.86975  0.69576  Biso   1.000  C
  O34      1.0000 0.00402  0.49035  0.72630  Biso   1.000  O
  C186     1.0000 0.83985  0.55274  0.70808  Biso   1.000  C
  C187     1.0000 0.78724  0.62296  0.78335  Biso   1.000  C
  H228     1.0000 0.88776  0.61815  0.85970  Biso   1.000  H
  H229     1.0000 0.13706  0.71373  0.94983  Biso   1.000  H
  H230     1.0000 0.20350  0.65156  0.97871  Biso   1.000  H
  C188     1.0000 0.05333  0.65739  0.01906  Biso   1.000  C
  O35      1.0000 0.37360  0.81439  0.55467  Biso   1.000  O
  C189     1.0000 0.28136  0.86793  0.63225  Biso   1.000  C
  C190     1.0000 0.21754  0.87752  0.82464  Biso   1.000  C
  H231     1.0000 0.20776  0.90346  0.70652  Biso   1.000  H
  C191     1.0000 0.98554  0.45909  0.67123  Biso   1.000  C
  H232     1.0000 0.82816  0.53414  0.66849  Biso   1.000  H
  C192     1.0000 0.76788  0.59725  0.72743  Biso   1.000  C
  O36      1.0000 0.71581  0.66865  0.79925  Biso   1.000  O
  H233     1.0000 0.98382  0.67533  0.00481  Biso   1.000  H
  H234     1.0000 0.07629  0.68092  0.05521  Biso   1.000  H
  H235     1.0000 0.04169  0.60882  0.03190  Biso   1.000  H
  C193     1.0000 0.48192  0.82936  0.53886  Biso   1.000  C
  C194     1.0000 0.23282  0.91744  0.58171  Biso   1.000  C
  H236     1.0000 0.25813  0.91663  0.80803  Biso   1.000  H
  H237     1.0000 0.14839  0.88105  0.80581  Biso   1.000  H
  C195     1.0000 0.21144  0.86790  0.89561  Biso   1.000  C
  C196     1.0000 0.01878  0.50062  0.61158  Biso   1.000  C
  H238     1.0000 0.02829  0.41761  0.67821  Biso   1.000  H
  H239     1.0000 0.90855  0.44522  0.66910  Biso   1.000  H
  C197     1.0000 0.67389  0.61963  0.68609  Biso   1.000  C
  C198     1.0000 0.72758  0.69622  0.85239  Biso   1.000  C
  C199     1.0000 0.75406  0.72186  0.82662  Biso   1.000  C
  H240     1.0000 0.49180  0.81193  0.49743  Biso   1.000  H
  H241     1.0000 0.52860  0.80352  0.57043  Biso   1.000  H
  C200     1.0000 0.50334  0.90070  0.53400  Biso   1.000  C
  C201     1.0000 0.12427  0.89731  0.56193  Biso   1.000  C
  H242     1.0000 0.27896  0.92236  0.54273  Biso   1.000  H
  H243     1.0000 0.22798  0.96103  0.59643  Biso   1.000  H
  H244     1.0000 0.17614  0.90675  0.91043  Biso   1.000  H
  H245     1.0000 0.17267  0.82857  0.91100  Biso   1.000  H
  H246     1.0000 0.28358  0.86427  0.91482  Biso   1.000  H
  H247     1.0000 0.00653  0.47366  0.57590  Biso   1.000  H
  H248     1.0000 0.09592  0.50704  0.61441  Biso   1.000  H
  H249     1.0000 0.97679  0.54416  0.60469  Biso   1.000  H
  C202     1.0000 0.70436  0.67585  0.63725  Biso   1.000  C
  H250     1.0000 0.61514  0.63406  0.71181  Biso   1.000  H
  H251     1.0000 0.65005  0.58173  0.66481  Biso   1.000  H
  C203     1.0000 0.66312  0.76132  0.84484  Biso   1.000  C
  H252     1.0000 0.80293  0.70475  0.85923  Biso   1.000  H
  H253     1.0000 0.70153  0.66684  0.88919  Biso   1.000  H
  H254     1.0000 0.79674  0.70614  0.86433  Biso   1.000  H
  H255     1.0000 0.79936  0.74867  0.79609  Biso   1.000  H
  H256     1.0000 0.46242  0.92663  0.49993  Biso   1.000  H
  H257     1.0000 0.48591  0.91765  0.57581  Biso   1.000  H
  H258     1.0000 0.57681  0.90742  0.52550  Biso   1.000  H
  C204     1.0000 0.11342  0.84056  0.53433  Biso   1.000  C
  C205     1.0000 0.03468  0.93457  0.57066  Biso   1.000  C
  C206     1.0000 0.69884  0.73932  0.65164  Biso   1.000  C
  C207     1.0000 0.74317  0.66515  0.57821  Biso   1.000  C
  H259     1.0000 0.70517  0.79575  0.82143  Biso   1.000  H
  H260     1.0000 0.64595  0.77318  0.88660  Biso   1.000  H
  H261     1.0000 0.59787  0.75594  0.82171  Biso   1.000  H
  H262     1.0000 0.62147  0.77694  0.80723  Biso   1.000  H
  H263     1.0000 0.68919  0.79855  0.86390  Biso   1.000  H
  H264     1.0000 0.61893  0.73457  0.87532  Biso   1.000  H
  C208     1.0000 0.01511  0.82043  0.51597  Biso   1.000  C
  H265     1.0000 0.17537  0.81494  0.52819  Biso   1.000  H
  C209     1.0000 0.93636  0.91503  0.55108  Biso   1.000  C
  O37      1.0000 0.04942  0.98894  0.60016  Biso   1.000  O
  C210     1.0000 0.73267  0.79132  0.60875  Biso   1.000  C
  H266     1.0000 0.67095  0.74715  0.69251  Biso   1.000  H
  O38      1.0000 0.74452  0.60129  0.56632  Biso   1.000  O
  C211     1.0000 0.77827  0.71686  0.53570  Biso   1.000  C
  C212     1.0000 0.92512  0.85794  0.52423  Biso   1.000  C
  O39      1.0000 0.99975  0.76459  0.48879  Biso   1.000  O
  H267     1.0000 0.87571  0.94266  0.55589  Biso   1.000  H
  C213     1.0000 0.96094  0.03009  0.60752  Biso   1.000  C
  O40      1.0000 0.72550  0.85533  0.61946  Biso   1.000  O
  C214     1.0000 0.77487  0.78049  0.55037  Biso   1.000  C
  C215     1.0000 0.75677  0.58814  0.50295  Biso   1.000  C
  H268     1.0000 0.80570  0.70843  0.49502  Biso   1.000  H
  C216     1.0000 0.81746  0.83630  0.50498  Biso   1.000  C
  C217     1.0000 0.08977  0.72571  0.47850  Biso   1.000  C
  H269     1.0000 0.90352  0.00437  0.63211  Biso   1.000  H
  H270     1.0000 0.93408  0.04782  0.56491  Biso   1.000  H
  C218     1.0000 0.99915  0.08383  0.64249  Biso   1.000  C
  C219     1.0000 0.67500  0.86843  0.67646  Biso   1.000  C
  H271     1.0000 0.83069  0.59764  0.48770  Biso   1.000  H
  H272     1.0000 0.70631  0.61692  0.47529  Biso   1.000  H
  C220     1.0000 0.73055  0.51783  0.50186  Biso   1.000  C
  H273     1.0000 0.76829  0.87524  0.50252  Biso   1.000  H
  H274     1.0000 0.82152  0.82265  0.46260  Biso   1.000  H
  H275     1.0000 0.13061  0.71906  0.51890  Biso   1.000  H
  H276     1.0000 0.13354  0.75125  0.44339  Biso   1.000  H
  C221     1.0000 0.05247  0.66240  0.46000  Biso   1.000  C
  H277     1.0000 0.94222  0.11454  0.64909  Biso   1.000  H
  H278     1.0000 0.05709  0.10697  0.61889  Biso   1.000  H
  H279     1.0000 0.02514  0.06667  0.68519  Biso   1.000  H
  H280     1.0000 0.60370  0.84837  0.67812  Biso   1.000  H
  H281     1.0000 0.71834  0.84725  0.71280  Biso   1.000  H
  C222     1.0000 0.66952  0.94117  0.67443  Biso   1.000  C
  H282     1.0000 0.73945  0.50685  0.45760  Biso   1.000  H
  H283     1.0000 0.65489  0.50853  0.51852  Biso   1.000  H
  H284     1.0000 0.77592  0.49093  0.52989  Biso   1.000  H
  H285     1.0000 0.01267  0.63953  0.49459  Biso   1.000  H
  H286     1.0000 0.11290  0.63372  0.45340  Biso   1.000  H
  H287     1.0000 0.00661  0.66764  0.42041  Biso   1.000  H
  H288     1.0000 0.74115  0.96057  0.67090  Biso   1.000  H
  H289     1.0000 0.62637  0.96055  0.63933  Biso   1.000  H
  H290     1.0000 0.64210  0.95355  0.71440  Biso   1.000  H
