data_image0
_cell_length_a       23.912
_cell_length_b       17.684
_cell_length_c       16.822
_cell_angle_alpha    90
_cell_angle_beta     99.48
_cell_angle_gamma    90

_symmetry_space_group_name_H-M    "P 1"
_symmetry_int_tables_number       1

loop_
  _symmetry_equiv_pos_as_xyz
  'x, y, z'

loop_
  _atom_site_label
  _atom_site_occupancy
  _atom_site_fract_x
  _atom_site_fract_y
  _atom_site_fract_z
  _atom_site_thermal_displace_type
  _atom_site_B_iso_or_equiv
  _atom_site_type_symbol
  C1       1.0000 0.11181  0.64697  0.45859  Biso   1.000  C
  H1       1.0000 0.12073  0.63702  0.40531  Biso   1.000  H
  H2       1.0000 0.14675  0.65421  0.49632  Biso   1.000  H
  H3       1.0000 0.09113  0.60439  0.47570  Biso   1.000  H
  C2       1.0000 0.07541  0.71850  0.45594  Biso   1.000  C
  C3       1.0000 0.07541  0.71856  0.45594  Biso   1.000  C
  N1       1.0000 0.06018  0.73728  0.53453  Biso   1.000  N
  N2       1.0000 0.10208  0.78110  0.42050  Biso   1.000  N
  C4       1.0000 0.01463  0.71206  0.39844  Biso   1.000  C
  C5       1.0000 0.01468  0.71206  0.39844  Biso   1.000  C
  C6       1.0000 0.09871  0.74435  0.60793  Biso   1.000  C
  C7       1.0000 0.00318  0.74265  0.53206  Biso   1.000  C
  C8       1.0000 0.15940  0.80604  0.44340  Biso   1.000  C
  C9       1.0000 0.06859  0.80983  0.35197  Biso   1.000  C
  N3       1.0000 0.01873  0.77313  0.33992  Biso   1.000  N
  C10      1.0000 0.99999  0.63645  0.36011  Biso   1.000  C
  N4       1.0000 0.97633  0.73173  0.45545  Biso   1.000  N
  H4       1.0000 0.07894  0.73190  0.65277  Biso   1.000  H
  H5       1.0000 0.12943  0.70759  0.60817  Biso   1.000  H
  N5       1.0000 0.12356  0.82086  0.62101  Biso   1.000  N
  O1       1.0000 0.97950  0.75424  0.59040  Biso   1.000  O
  H6       1.0000 0.18322  0.76193  0.46027  Biso   1.000  H
  H7       1.0000 0.17234  0.82770  0.39597  Biso   1.000  H
  N6       1.0000 0.16810  0.86151  0.50771  Biso   1.000  N
  O2       1.0000 0.08212  0.85908  0.30773  Biso   1.000  O
  C11      1.0000 0.97430  0.79241  0.27410  Biso   1.000  C
  H8       1.0000 0.99781  0.59907  0.40157  Biso   1.000  H
  H9       1.0000 0.96372  0.63967  0.32467  Biso   1.000  H
  H10      1.0000 0.99781  0.59913  0.40157  Biso   1.000  H
  H11      1.0000 0.96372  0.63973  0.32467  Biso   1.000  H
  H12      1.0000 0.02900  0.62181  0.32901  Biso   1.000  H
  H13      1.0000 0.02905  0.62181  0.32901  Biso   1.000  H
  C12      1.0000 0.91461  0.72325  0.43713  Biso   1.000  C
  C13      1.0000 0.10875  0.86903  0.67760  Biso   1.000  C
  C14      1.0000 0.17454  0.84330  0.59323  Biso   1.000  C
  C15      1.0000 0.17584  0.93751  0.49403  Biso   1.000  C
  H14      1.0000 0.99132  0.81610  0.23119  Biso   1.000  H
  H15      1.0000 0.95550  0.74582  0.25229  Biso   1.000  H
  N7       1.0000 0.93197  0.84325  0.29713  Biso   1.000  N
  N8       1.0000 0.93201  0.84325  0.29713  Biso   1.000  N
  H16      1.0000 0.90523  0.68282  0.39729  Biso   1.000  H
  H17      1.0000 0.90044  0.70821  0.48631  Biso   1.000  H
  N9       1.0000 0.88593  0.79360  0.40549  Biso   1.000  N
  N10      1.0000 0.14497  0.92909  0.68309  Biso   1.000  N
  O3       1.0000 0.07072  0.86021  0.71503  Biso   1.000  O
  C16      1.0000 0.18960  0.92061  0.63367  Biso   1.000  C
  H18      1.0000 0.20525  0.80598  0.60890  Biso   1.000  H
  O4       1.0000 0.17490  0.96681  0.42851  Biso   1.000  O
  N11      1.0000 0.18763  0.97269  0.56725  Biso   1.000  N
  N12      1.0000 0.18763  0.97274  0.56725  Biso   1.000  N
  C17      1.0000 0.88055  0.81509  0.32292  Biso   1.000  C
  C18      1.0000 0.92556  0.91337  0.26711  Biso   1.000  C
  C19      1.0000 0.86036  0.84099  0.45009  Biso   1.000  C
  C20      1.0000 0.14767  0.98688  0.74607  Biso   1.000  C
  C21      1.0000 0.14771  0.98688  0.74607  Biso   1.000  C
  H19      1.0000 0.22766  0.91970  0.66730  Biso   1.000  H
  C22      1.0000 0.20587  0.05055  0.57557  Biso   1.000  C
  H20      1.0000 0.86332  0.77381  0.28718  Biso   1.000  H
  C23      1.0000 0.84110  0.88577  0.31563  Biso   1.000  C
  N13      1.0000 0.87335  0.94232  0.28061  Biso   1.000  N
  O5       1.0000 0.95875  0.94894  0.23306  Biso   1.000  O
  O6       1.0000 0.95875  0.94899  0.23306  Biso   1.000  O
  N14      1.0000 0.83586  0.89867  0.40031  Biso   1.000  N
  O7       1.0000 0.85681  0.83516  0.52229  Biso   1.000  O
  N15      1.0000 0.83586  0.89872  0.40031  Biso   1.000  N
  H21      1.0000 0.12627  0.96890  0.78729  Biso   1.000  H
  H22      1.0000 0.18737  0.99271  0.77181  Biso   1.000  H
  N16      1.0000 0.12672  0.05768  0.71937  Biso   1.000  N
  N17      1.0000 0.16421  0.10133  0.59968  Biso   1.000  N
  H23      1.0000 0.24053  0.05333  0.61559  Biso   1.000  H
  H24      1.0000 0.21524  0.06791  0.52398  Biso   1.000  H
  H25      1.0000 0.80391  0.87582  0.28158  Biso   1.000  H
  C24      1.0000 0.85235  0.01312  0.25391  Biso   1.000  C
  C25      1.0000 0.85240  0.01312  0.25391  Biso   1.000  C
  C26      1.0000 0.79420  0.94945  0.42441  Biso   1.000  C
  C27      1.0000 0.07450  0.08663  0.73287  Biso   1.000  C
  C28      1.0000 0.15900  0.11428  0.68436  Biso   1.000  C
  C29      1.0000 0.13970  0.15901  0.54989  Biso   1.000  C
  N18      1.0000 0.85509  0.07091  0.31689  Biso   1.000  N
  H26      1.0000 0.87380  0.03110  0.21269  Biso   1.000  H
  H27      1.0000 0.81270  0.00729  0.22818  Biso   1.000  H
  H28      1.0000 0.75954  0.94667  0.38440  Biso   1.000  H
  H29      1.0000 0.78483  0.93209  0.47600  Biso   1.000  H
  H30      1.0000 0.75954  0.94673  0.38440  Biso   1.000  H
  N19      1.0000 0.81243  0.02731  0.43273  Biso   1.000  N
  C30      1.0000 0.11952  0.18491  0.67706  Biso   1.000  C
  H31      1.0000 0.19615  0.12418  0.71841  Biso   1.000  H
  N20      1.0000 0.06806  0.15675  0.70286  Biso   1.000  N
  O8       1.0000 0.04131  0.05106  0.76692  Biso   1.000  O
  N21      1.0000 0.11413  0.20640  0.59449  Biso   1.000  N
  O9       1.0000 0.14325  0.16484  0.47769  Biso   1.000  O
  C31      1.0000 0.89132  0.13097  0.32238  Biso   1.000  C
  C32      1.0000 0.81048  0.07939  0.36638  Biso   1.000  C
  C33      1.0000 0.82422  0.06249  0.50596  Biso   1.000  C
  H32      1.0000 0.13675  0.22619  0.71280  Biso   1.000  H
  C34      1.0000 0.02577  0.20765  0.72588  Biso   1.000  C
  C35      1.0000 0.08546  0.27675  0.56285  Biso   1.000  C
  N22      1.0000 0.87651  0.17914  0.37897  Biso   1.000  N
  O10      1.0000 0.92935  0.13984  0.28501  Biso   1.000  O
  H33      1.0000 0.77241  0.08030  0.33269  Biso   1.000  H
  C36      1.0000 0.82553  0.15670  0.40676  Biso   1.000  C
  C37      1.0000 0.82557  0.15670  0.40676  Biso   1.000  C
  N23      1.0000 0.83196  0.13849  0.49228  Biso   1.000  N
  O11      1.0000 0.82516  0.03319  0.57147  Biso   1.000  O
  N24      1.0000 0.98134  0.22687  0.66007  Biso   1.000  N
  H34      1.0000 0.00874  0.18390  0.76879  Biso   1.000  H
  H35      1.0000 0.04456  0.25418  0.74770  Biso   1.000  H
  H36      1.0000 0.09484  0.31718  0.60269  Biso   1.000  H
  H37      1.0000 0.09962  0.29179  0.51367  Biso   1.000  H
  N25      1.0000 0.02375  0.26827  0.54459  Biso   1.000  N
  C38      1.0000 0.90136  0.25565  0.39205  Biso   1.000  C
  H38      1.0000 0.79481  0.19402  0.39109  Biso   1.000  H
  C39      1.0000 0.84067  0.19396  0.55658  Biso   1.000  C
  C40      1.0000 0.98539  0.28794  0.60155  Biso   1.000  C
  C41      1.0000 0.93147  0.19017  0.64801  Biso   1.000  C
  C42      1.0000 0.99688  0.25735  0.46793  Biso   1.000  C
  H39      1.0000 0.92113  0.26810  0.34721  Biso   1.000  H
  H40      1.0000 0.87063  0.29241  0.39181  Biso   1.000  H
  N26      1.0000 0.93989  0.26272  0.46546  Biso   1.000  N
  N27      1.0000 0.93989  0.26278  0.46546  Biso   1.000  N
  H41      1.0000 0.81684  0.23812  0.53971  Biso   1.000  H
  H42      1.0000 0.82772  0.17230  0.60402  Biso   1.000  H
  N28      1.0000 0.89798  0.21890  0.57949  Biso   1.000  N
  C43      1.0000 0.92466  0.28150  0.54405  Biso   1.000  C
  C44      1.0000 0.00008  0.36355  0.63988  Biso   1.000  C
  O12      1.0000 0.91796  0.14097  0.69231  Biso   1.000  O
  O13      1.0000 0.02057  0.24576  0.40959  Biso   1.000  O
  C45      1.0000 0.88826  0.35303  0.54140  Biso   1.000  C
  H43      1.0000 0.97106  0.37819  0.67098  Biso   1.000  H
  H44      1.0000 0.00226  0.40093  0.59841  Biso   1.000  H
  H45      1.0000 0.03634  0.36033  0.67531  Biso   1.000  H
  H46      1.0000 0.87933  0.36298  0.59467  Biso   1.000  H
  H47      1.0000 0.85332  0.34579  0.50367  Biso   1.000  H
  H48      1.0000 0.90894  0.39561  0.52428  Biso   1.000  H
  C46      1.0000 0.14766  0.51312  0.24608  Biso   1.000  C
  N29      1.0000 0.12667  0.44232  0.21938  Biso   1.000  N
  N30      1.0000 0.14492  0.57091  0.18310  Biso   1.000  N
  H49      1.0000 0.12621  0.53110  0.28730  Biso   1.000  H
  H50      1.0000 0.18732  0.50729  0.27181  Biso   1.000  H
  C47      1.0000 0.15895  0.38577  0.18436  Biso   1.000  C
  C48      1.0000 0.07449  0.41337  0.23288  Biso   1.000  C
  C49      1.0000 0.18959  0.57939  0.13368  Biso   1.000  C
  C50      1.0000 0.10874  0.63097  0.17767  Biso   1.000  C
  C51      1.0000 0.11950  0.31509  0.17707  Biso   1.000  C
  H51      1.0000 0.19610  0.37582  0.21842  Biso   1.000  H
  N31      1.0000 0.16415  0.39867  0.09969  Biso   1.000  N
  N32      1.0000 0.06804  0.34325  0.20287  Biso   1.000  N
  O14      1.0000 0.04130  0.44894  0.26693  Biso   1.000  O
  N33      1.0000 0.18762  0.52731  0.06726  Biso   1.000  N
  H52      1.0000 0.22761  0.58030  0.16731  Biso   1.000  H
  C52      1.0000 0.17449  0.65670  0.09324  Biso   1.000  C
  N34      1.0000 0.12351  0.67914  0.12102  Biso   1.000  N
  O15      1.0000 0.07067  0.63984  0.21504  Biso   1.000  O
  N35      1.0000 0.11408  0.29360  0.09450  Biso   1.000  N
  H53      1.0000 0.13674  0.27381  0.21281  Biso   1.000  H
  H54      1.0000 0.13669  0.27381  0.21281  Biso   1.000  H
  C53      1.0000 0.20585  0.44945  0.07558  Biso   1.000  C
  C54      1.0000 0.13969  0.34099  0.04990  Biso   1.000  C
  C55      1.0000 0.02571  0.29235  0.22589  Biso   1.000  C
  C56      1.0000 0.17587  0.56249  0.99403  Biso   1.000  C
  N36      1.0000 0.16805  0.63849  0.00771  Biso   1.000  N
  H55      1.0000 0.20520  0.69402  0.10891  Biso   1.000  H
  C57      1.0000 0.09866  0.75565  0.10794  Biso   1.000  C
  C58      1.0000 0.08545  0.22325  0.06286  Biso   1.000  C
  H56      1.0000 0.24052  0.44667  0.11560  Biso   1.000  H
  H57      1.0000 0.21518  0.43209  0.02399  Biso   1.000  H
  H58      1.0000 0.21522  0.43209  0.02399  Biso   1.000  H
  O16      1.0000 0.14328  0.33516  0.97770  Biso   1.000  O
  H59      1.0000 0.00873  0.31610  0.26880  Biso   1.000  H
  H60      1.0000 0.04451  0.24582  0.24771  Biso   1.000  H
  N37      1.0000 0.98129  0.27313  0.16007  Biso   1.000  N
  O17      1.0000 0.17497  0.53319  0.92852  Biso   1.000  O
  C59      1.0000 0.15947  0.69396  0.94341  Biso   1.000  C
  C60      1.0000 0.15943  0.69396  0.94341  Biso   1.000  C
  N38      1.0000 0.06012  0.76278  0.03453  Biso   1.000  N
  H61      1.0000 0.07889  0.76810  0.15278  Biso   1.000  H
  H62      1.0000 0.12938  0.79241  0.10818  Biso   1.000  H
  N39      1.0000 0.06013  0.76278  0.03459  Biso   1.000  N
  H63      1.0000 0.09961  0.20821  0.01368  Biso   1.000  H
  N40      1.0000 0.02369  0.23173  0.04460  Biso   1.000  N
  H64      1.0000 0.09479  0.18282  0.10270  Biso   1.000  H
  H65      1.0000 0.09483  0.18282  0.10270  Biso   1.000  H
  C61      1.0000 0.98538  0.21206  0.10155  Biso   1.000  C
  C62      1.0000 0.93146  0.30983  0.14802  Biso   1.000  C
  H66      1.0000 0.18330  0.73812  0.96028  Biso   1.000  H
  H67      1.0000 0.17238  0.67230  0.89604  Biso   1.000  H
  N41      1.0000 0.10211  0.71890  0.92051  Biso   1.000  N
  C63      1.0000 0.00313  0.75735  0.03206  Biso   1.000  C
  C64      1.0000 0.07548  0.78150  0.95594  Biso   1.000  C
  C65      1.0000 0.99695  0.24265  0.96794  Biso   1.000  C
  C66      1.0000 0.00002  0.13645  0.13988  Biso   1.000  C
  C67      1.0000 0.92460  0.21856  0.04406  Biso   1.000  C
  N42      1.0000 0.89793  0.28110  0.07949  Biso   1.000  N
  O18      1.0000 0.91794  0.35903  0.19232  Biso   1.000  O
  C68      1.0000 0.06862  0.69017  0.85198  Biso   1.000  C
  N43      1.0000 0.97639  0.76827  0.95540  Biso   1.000  N
  N44      1.0000 0.97640  0.76827  0.95546  Biso   1.000  N
  O19      1.0000 0.97949  0.74576  0.09040  Biso   1.000  O
  C69      1.0000 0.01471  0.78794  0.89845  Biso   1.000  C
  C70      1.0000 0.11188  0.85303  0.95860  Biso   1.000  C
  N45      1.0000 0.93996  0.23728  0.96547  Biso   1.000  N
  O20      1.0000 0.02060  0.25424  0.90960  Biso   1.000  O
  H68      1.0000 0.00220  0.09907  0.09842  Biso   1.000  H
  H69      1.0000 0.97101  0.12181  0.17098  Biso   1.000  H
  H70      1.0000 0.03633  0.13967  0.17532  Biso   1.000  H
  H71      1.0000 0.03629  0.13967  0.17532  Biso   1.000  H
  C71      1.0000 0.88820  0.14697  0.04140  Biso   1.000  C
  C72      1.0000 0.84062  0.30604  0.05659  Biso   1.000  C
  N46      1.0000 0.01880  0.72687  0.83993  Biso   1.000  N
  O21      1.0000 0.08215  0.64097  0.80774  Biso   1.000  O
  C73      1.0000 0.91464  0.77675  0.93714  Biso   1.000  C
  C74      1.0000 0.00006  0.86355  0.86012  Biso   1.000  C
  H72      1.0000 0.14678  0.84579  0.99632  Biso   1.000  H
  H73      1.0000 0.09120  0.89561  0.97571  Biso   1.000  H
  H74      1.0000 0.12080  0.86298  0.90532  Biso   1.000  H
  C75      1.0000 0.90143  0.24435  0.89206  Biso   1.000  C
  H75      1.0000 0.85330  0.15421  0.00368  Biso   1.000  H
  H76      1.0000 0.90889  0.10439  0.02429  Biso   1.000  H
  H77      1.0000 0.87928  0.13702  0.09468  Biso   1.000  H
  H78      1.0000 0.85331  0.15421  0.00374  Biso   1.000  H
  N47      1.0000 0.83204  0.36151  0.99229  Biso   1.000  N
  H79      1.0000 0.81679  0.26188  0.03972  Biso   1.000  H
  H80      1.0000 0.82771  0.32770  0.10402  Biso   1.000  H
  C76      1.0000 0.97437  0.70765  0.77411  Biso   1.000  C
  H81      1.0000 0.90530  0.81718  0.89730  Biso   1.000  H
  H82      1.0000 0.90047  0.79179  0.98632  Biso   1.000  H
  N48      1.0000 0.88601  0.70640  0.90550  Biso   1.000  N
  H83      1.0000 0.90526  0.81718  0.89730  Biso   1.000  H
  H84      1.0000 0.99788  0.90093  0.90158  Biso   1.000  H
  H85      1.0000 0.96376  0.86033  0.82474  Biso   1.000  H
  H86      1.0000 0.96379  0.86033  0.82468  Biso   1.000  H
  H87      1.0000 0.02908  0.87819  0.82902  Biso   1.000  H
  H88      1.0000 0.87066  0.20759  0.89182  Biso   1.000  H
  N49      1.0000 0.87658  0.32086  0.87898  Biso   1.000  N
  H89      1.0000 0.92120  0.23190  0.84722  Biso   1.000  H
  C77      1.0000 0.82560  0.34330  0.90676  Biso   1.000  C
  C78      1.0000 0.82417  0.43751  0.00597  Biso   1.000  C
  C79      1.0000 0.82421  0.43751  0.00597  Biso   1.000  C
  H90      1.0000 0.99135  0.68390  0.73120  Biso   1.000  H
  H91      1.0000 0.95557  0.75418  0.75229  Biso   1.000  H
  N50      1.0000 0.93204  0.65675  0.79713  Biso   1.000  N
  C80      1.0000 0.86044  0.65901  0.95010  Biso   1.000  C
  C81      1.0000 0.88058  0.68491  0.82293  Biso   1.000  C
  C82      1.0000 0.86039  0.65901  0.95010  Biso   1.000  C
  C83      1.0000 0.89135  0.36903  0.82239  Biso   1.000  C
  H92      1.0000 0.79488  0.30598  0.89109  Biso   1.000  H
  C84      1.0000 0.81051  0.42061  0.86638  Biso   1.000  C
  N51      1.0000 0.81246  0.47269  0.93274  Biso   1.000  N
  O22      1.0000 0.82515  0.46681  0.07148  Biso   1.000  O
  O23      1.0000 0.82511  0.46681  0.07148  Biso   1.000  O
  C85      1.0000 0.92559  0.58663  0.76712  Biso   1.000  C
  N52      1.0000 0.83589  0.60133  0.90031  Biso   1.000  N
  N53      1.0000 0.83593  0.60133  0.90031  Biso   1.000  N
  O24      1.0000 0.85680  0.66484  0.02230  Biso   1.000  O
  C86      1.0000 0.84113  0.61423  0.81564  Biso   1.000  C
  H93      1.0000 0.86339  0.72619  0.78719  Biso   1.000  H
  N54      1.0000 0.85516  0.42909  0.81690  Biso   1.000  N
  O25      1.0000 0.92942  0.36016  0.78502  Biso   1.000  O
  H94      1.0000 0.77248  0.41970  0.83269  Biso   1.000  H
  C87      1.0000 0.79423  0.55055  0.92442  Biso   1.000  C
  N55      1.0000 0.87342  0.55768  0.78062  Biso   1.000  N
  O26      1.0000 0.95878  0.55106  0.73307  Biso   1.000  O
  H95      1.0000 0.80398  0.62418  0.78158  Biso   1.000  H
  H96      1.0000 0.80394  0.62418  0.78158  Biso   1.000  H
  C88      1.0000 0.85243  0.48688  0.75392  Biso   1.000  C
  H97      1.0000 0.75957  0.55333  0.88440  Biso   1.000  H
  H98      1.0000 0.78490  0.56791  0.97601  Biso   1.000  H
  H99      1.0000 0.78486  0.56791  0.97601  Biso   1.000  H
  H100     1.0000 0.87387  0.46890  0.71270  Biso   1.000  H
  H101     1.0000 0.81277  0.49271  0.72819  Biso   1.000  H
  C89      1.0000 0.34756  0.47540  0.61926  Biso   1.000  C
  C90      1.0000 0.38795  0.46901  0.70009  Biso   1.000  C
  H102     1.0000 0.32644  0.42858  0.60848  Biso   1.000  H
  H103     1.0000 0.36924  0.48490  0.57647  Biso   1.000  H
  H104     1.0000 0.32122  0.51679  0.62192  Biso   1.000  H
  C91      1.0000 0.43551  0.40381  0.70232  Biso   1.000  C
  N56      1.0000 0.35712  0.44447  0.76500  Biso   1.000  N
  N57      1.0000 0.41959  0.53698  0.71871  Biso   1.000  N
  N58      1.0000 0.35708  0.44447  0.76500  Biso   1.000  N
  C92      1.0000 0.43394  0.36247  0.62668  Biso   1.000  C
  N59      1.0000 0.48763  0.44962  0.72371  Biso   1.000  N
  N60      1.0000 0.42489  0.35456  0.76837  Biso   1.000  N
  C93      1.0000 0.47678  0.52562  0.73082  Biso   1.000  C
  C94      1.0000 0.39615  0.61219  0.72136  Biso   1.000  C
  C95      1.0000 0.39615  0.61219  0.72142  Biso   1.000  C
  C96      1.0000 0.38054  0.38119  0.80363  Biso   1.000  C
  C97      1.0000 0.30899  0.48202  0.78808  Biso   1.000  C
  H105     1.0000 0.39914  0.33330  0.61547  Biso   1.000  H
  H106     1.0000 0.46626  0.32860  0.63132  Biso   1.000  H
  H107     1.0000 0.43534  0.39799  0.58322  Biso   1.000  H
  C98      1.0000 0.54520  0.42389  0.72540  Biso   1.000  C
  C99      1.0000 0.45262  0.28710  0.79230  Biso   1.000  C
  O27      1.0000 0.51399  0.57561  0.74511  Biso   1.000  O
  H108     1.0000 0.36184  0.61519  0.68050  Biso   1.000  H
  H109     1.0000 0.42356  0.64833  0.70599  Biso   1.000  H
  N61      1.0000 0.38124  0.63702  0.79881  Biso   1.000  N
  O28      1.0000 0.36279  0.34822  0.85829  Biso   1.000  O
  N62      1.0000 0.32147  0.54354  0.84383  Biso   1.000  N
  H110     1.0000 0.28667  0.44441  0.81207  Biso   1.000  H
  H111     1.0000 0.28515  0.50119  0.73932  Biso   1.000  H
  H112     1.0000 0.28663  0.44441  0.81207  Biso   1.000  H
  H113     1.0000 0.54626  0.38702  0.68219  Biso   1.000  H
  H114     1.0000 0.56926  0.46681  0.71612  Biso   1.000  H
  N63      1.0000 0.56717  0.38900  0.80351  Biso   1.000  N
  H115     1.0000 0.42715  0.25549  0.81821  Biso   1.000  H
  H116     1.0000 0.45974  0.26029  0.74396  Biso   1.000  H
  H117     1.0000 0.45974  0.26029  0.74402  Biso   1.000  H
  N64      1.0000 0.50621  0.29467  0.84726  Biso   1.000  N
  C100     1.0000 0.32883  0.62028  0.81930  Biso   1.000  C
  C101     1.0000 0.41127  0.68621  0.85407  Biso   1.000  C
  C102     1.0000 0.31467  0.53823  0.92302  Biso   1.000  C
  C103     1.0000 0.55968  0.31045  0.82111  Biso   1.000  C
  C104     1.0000 0.61261  0.41840  0.85606  Biso   1.000  C
  C105     1.0000 0.61258  0.41840  0.85612  Biso   1.000  C
  C106     1.0000 0.51327  0.27211  0.92591  Biso   1.000  C
  H118     1.0000 0.29766  0.63611  0.77621  Biso   1.000  H
  C107     1.0000 0.32878  0.66699  0.89680  Biso   1.000  C
  N65      1.0000 0.38414  0.69820  0.91410  Biso   1.000  N
  O29      1.0000 0.45953  0.70759  0.83708  Biso   1.000  O
  O30      1.0000 0.30407  0.48106  0.95930  Biso   1.000  O
  N66      1.0000 0.31744  0.60948  0.95526  Biso   1.000  N
  C108     1.0000 0.60480  0.29671  0.89180  Biso   1.000  C
  H119     1.0000 0.56507  0.27799  0.77488  Biso   1.000  H
  N67      1.0000 0.63279  0.36666  0.91217  Biso   1.000  N
  O31      1.0000 0.63327  0.48287  0.85281  Biso   1.000  O
  N68      1.0000 0.57173  0.26832  0.95147  Biso   1.000  N
  O32      1.0000 0.47457  0.25679  0.96509  Biso   1.000  O
  H120     1.0000 0.29926  0.70680  0.88927  Biso   1.000  H
  C109     1.0000 0.40087  0.75933  0.97039  Biso   1.000  C
  C110     1.0000 0.31317  0.62531  0.03711  Biso   1.000  C
  H121     1.0000 0.63186  0.25792  0.87920  Biso   1.000  H
  C111     1.0000 0.68689  0.37469  0.96292  Biso   1.000  C
  C112     1.0000 0.59918  0.24073  0.02958  Biso   1.000  C
  H122     1.0000 0.42685  0.79309  0.94809  Biso   1.000  H
  H123     1.0000 0.36716  0.78862  0.97726  Biso   1.000  H
  N69      1.0000 0.42832  0.73168  0.04850  Biso   1.000  N
  H124     1.0000 0.29151  0.67208  0.03928  Biso   1.000  H
  H125     1.0000 0.29218  0.58443  0.05808  Biso   1.000  H
  N70      1.0000 0.36726  0.63334  0.08780  Biso   1.000  N
  H126     1.0000 0.29146  0.67208  0.03928  Biso   1.000  H
  H127     1.0000 0.70787  0.41563  0.94188  Biso   1.000  H
  H128     1.0000 0.70854  0.32792  0.96069  Biso   1.000  H
  N71      1.0000 0.68261  0.39052  0.04470  Biso   1.000  N
  N72      1.0000 0.68257  0.39052  0.04470  Biso   1.000  N
  H129     1.0000 0.57320  0.20691  0.05188  Biso   1.000  H
  H130     1.0000 0.63289  0.21138  0.02271  Biso   1.000  H
  N73      1.0000 0.61591  0.30180  0.08587  Biso   1.000  N
  C113     1.0000 0.39525  0.70329  0.10817  Biso   1.000  C
  C114     1.0000 0.48678  0.72789  0.07411  Biso   1.000  C
  C115     1.0000 0.38748  0.58160  0.14391  Biso   1.000  C
  C116     1.0000 0.38744  0.58160  0.14391  Biso   1.000  C
  C117     1.0000 0.67127  0.33301  0.10316  Biso   1.000  C
  C118     1.0000 0.68539  0.46183  0.07701  Biso   1.000  C
  C119     1.0000 0.58878  0.31379  0.14590  Biso   1.000  C
  H131     1.0000 0.36819  0.74208  0.12076  Biso   1.000  H
  C120     1.0000 0.44037  0.68955  0.17886  Biso   1.000  C
  N74      1.0000 0.49385  0.70533  0.15277  Biso   1.000  N
  O33      1.0000 0.52548  0.74321  0.03488  Biso   1.000  O
  N75      1.0000 0.43284  0.61100  0.19646  Biso   1.000  N
  O34      1.0000 0.36678  0.51713  0.14716  Biso   1.000  O
  H132     1.0000 0.70079  0.29320  0.11070  Biso   1.000  H
  C121     1.0000 0.67122  0.37972  0.18067  Biso   1.000  C
  N76      1.0000 0.67858  0.45646  0.15614  Biso   1.000  N
  O35      1.0000 0.69598  0.51900  0.04067  Biso   1.000  O
  O36      1.0000 0.54052  0.29241  0.16289  Biso   1.000  O
  N77      1.0000 0.61881  0.36298  0.20116  Biso   1.000  N
  H133     1.0000 0.43498  0.72201  0.22509  Biso   1.000  H
  C122     1.0000 0.54742  0.71290  0.20767  Biso   1.000  C
  C123     1.0000 0.45485  0.57611  0.27457  Biso   1.000  C
  H134     1.0000 0.70239  0.36389  0.22376  Biso   1.000  H
  C124     1.0000 0.69106  0.51798  0.21189  Biso   1.000  C
  C125     1.0000 0.60390  0.38781  0.27861  Biso   1.000  C
  H135     1.0000 0.54031  0.73971  0.25601  Biso   1.000  H
  H136     1.0000 0.57290  0.74451  0.18176  Biso   1.000  H
  N78      1.0000 0.57516  0.64544  0.23160  Biso   1.000  N
  H137     1.0000 0.57291  0.74451  0.18182  Biso   1.000  H
  H138     1.0000 0.43080  0.53319  0.28391  Biso   1.000  H
  H139     1.0000 0.45379  0.61298  0.31778  Biso   1.000  H
  N79      1.0000 0.51242  0.55044  0.27626  Biso   1.000  N
  H140     1.0000 0.71491  0.49881  0.26071  Biso   1.000  H
  H141     1.0000 0.71342  0.55559  0.18790  Biso   1.000  H
  N80      1.0000 0.64293  0.55553  0.23497  Biso   1.000  N
  H142     1.0000 0.71338  0.55559  0.18790  Biso   1.000  H
  N81      1.0000 0.64293  0.55553  0.23503  Biso   1.000  N
  H143     1.0000 0.63821  0.38481  0.31947  Biso   1.000  H
  H144     1.0000 0.57649  0.35167  0.29398  Biso   1.000  H
  N82      1.0000 0.58042  0.46302  0.28126  Biso   1.000  N
  C126     1.0000 0.61951  0.61881  0.19634  Biso   1.000  C
  C127     1.0000 0.56454  0.59619  0.29765  Biso   1.000  C
  C128     1.0000 0.52327  0.47438  0.26921  Biso   1.000  C
  C129     1.0000 0.61210  0.53099  0.29988  Biso   1.000  C
  O37      1.0000 0.63727  0.65178  0.14174  Biso   1.000  O
  C130     1.0000 0.56611  0.63753  0.37329  Biso   1.000  C
  O38      1.0000 0.48606  0.42439  0.25486  Biso   1.000  O
  C131     1.0000 0.65249  0.52460  0.38070  Biso   1.000  C
  H145     1.0000 0.60091  0.66670  0.38450  Biso   1.000  H
  H146     1.0000 0.53380  0.67140  0.36871  Biso   1.000  H
  H147     1.0000 0.56471  0.60201  0.41680  Biso   1.000  H
  H148     1.0000 0.67361  0.57142  0.39149  Biso   1.000  H
  H149     1.0000 0.63081  0.51510  0.42349  Biso   1.000  H
  H150     1.0000 0.67883  0.48321  0.37805  Biso   1.000  H
  H151     1.0000 0.67879  0.48321  0.37811  Biso   1.000  H
  O39      1.0000 0.36277  0.15178  0.35824  Biso   1.000  O
  C132     1.0000 0.38049  0.11881  0.30364  Biso   1.000  C
  N83      1.0000 0.42483  0.14544  0.26838  Biso   1.000  N
  N84      1.0000 0.35707  0.05553  0.26500  Biso   1.000  N
  C133     1.0000 0.45261  0.21290  0.29230  Biso   1.000  C
  C134     1.0000 0.43550  0.09619  0.20232  Biso   1.000  C
  C135     1.0000 0.38790  0.03099  0.20009  Biso   1.000  C
  C136     1.0000 0.30893  0.01798  0.28809  Biso   1.000  C
  H152     1.0000 0.45973  0.23971  0.24397  Biso   1.000  H
  H153     1.0000 0.42714  0.24451  0.31822  Biso   1.000  H
  N85      1.0000 0.50615  0.20533  0.34721  Biso   1.000  N
  C137     1.0000 0.43388  0.13753  0.12669  Biso   1.000  C
  N86      1.0000 0.48757  0.05038  0.22372  Biso   1.000  N
  N87      1.0000 0.48757  0.05044  0.22372  Biso   1.000  N
  C138     1.0000 0.34750  0.02460  0.11927  Biso   1.000  C
  N88      1.0000 0.41958  0.96302  0.21872  Biso   1.000  N
  H154     1.0000 0.28662  0.05559  0.31207  Biso   1.000  H
  H155     1.0000 0.28513  0.99881  0.23927  Biso   1.000  H
  N89      1.0000 0.32141  0.95646  0.34383  Biso   1.000  N
  C139     1.0000 0.55966  0.18955  0.32111  Biso   1.000  C
  C140     1.0000 0.51326  0.22789  0.42592  Biso   1.000  C
  H156     1.0000 0.39909  0.16670  0.11548  Biso   1.000  H
  H157     1.0000 0.46620  0.17140  0.13133  Biso   1.000  H
  H158     1.0000 0.43532  0.10201  0.08317  Biso   1.000  H
  C141     1.0000 0.54519  0.07611  0.22541  Biso   1.000  C
  C142     1.0000 0.47672  0.97438  0.23077  Biso   1.000  C
  H159     1.0000 0.32639  0.07142  0.10848  Biso   1.000  H
  H160     1.0000 0.36922  0.01510  0.07648  Biso   1.000  H
  H161     1.0000 0.32121  0.98321  0.12192  Biso   1.000  H
  C143     1.0000 0.39609  0.88781  0.22137  Biso   1.000  C
  C144     1.0000 0.32878  0.87972  0.31931  Biso   1.000  C
  C145     1.0000 0.31461  0.96177  0.42297  Biso   1.000  C
  C146     1.0000 0.31461  0.96183  0.42297  Biso   1.000  C
  C147     1.0000 0.60474  0.20329  0.39181  Biso   1.000  C
  H162     1.0000 0.56501  0.22201  0.27489  Biso   1.000  H
  N90      1.0000 0.56716  0.11100  0.30351  Biso   1.000  N
  O40      1.0000 0.47452  0.24321  0.46510  Biso   1.000  O
  N91      1.0000 0.57172  0.23173  0.45148  Biso   1.000  N
  H163     1.0000 0.56920  0.03319  0.21612  Biso   1.000  H
  H164     1.0000 0.54620  0.11298  0.18219  Biso   1.000  H
  O41      1.0000 0.51393  0.92439  0.24511  Biso   1.000  O
  H165     1.0000 0.36183  0.88481  0.18051  Biso   1.000  H
  H166     1.0000 0.42350  0.85167  0.20600  Biso   1.000  H
  N92      1.0000 0.38119  0.86298  0.29881  Biso   1.000  N
  H167     1.0000 0.42350  0.85173  0.20600  Biso   1.000  H
  C148     1.0000 0.32872  0.83301  0.39681  Biso   1.000  C
  H168     1.0000 0.29760  0.86389  0.27621  Biso   1.000  H
  N93      1.0000 0.31743  0.89052  0.45527  Biso   1.000  N
  O42      1.0000 0.30406  0.01894  0.45931  Biso   1.000  O
  O43      1.0000 0.30406  0.01900  0.45931  Biso   1.000  O
  H169     1.0000 0.63184  0.24208  0.37921  Biso   1.000  H
  N94      1.0000 0.63274  0.13334  0.41218  Biso   1.000  N
  C149     1.0000 0.61256  0.08160  0.35607  Biso   1.000  C
  C150     1.0000 0.59925  0.25927  0.52958  Biso   1.000  C
  C151     1.0000 0.59925  0.25933  0.52958  Biso   1.000  C
  C152     1.0000 0.41126  0.81379  0.35408  Biso   1.000  C
  H170     1.0000 0.29920  0.79320  0.38928  Biso   1.000  H
  N95      1.0000 0.38413  0.80180  0.41411  Biso   1.000  N
  C153     1.0000 0.31320  0.87469  0.53712  Biso   1.000  C
  C154     1.0000 0.68683  0.12531  0.46287  Biso   1.000  C
  O44      1.0000 0.63322  0.01713  0.35282  Biso   1.000  O
  H171     1.0000 0.57323  0.29309  0.55188  Biso   1.000  H
  H172     1.0000 0.63296  0.28862  0.52271  Biso   1.000  H
  N96      1.0000 0.61594  0.19820  0.58588  Biso   1.000  N
  O45      1.0000 0.45952  0.79241  0.33708  Biso   1.000  O
  C155     1.0000 0.40082  0.74073  0.47040  Biso   1.000  C
  H173     1.0000 0.29153  0.82792  0.53929  Biso   1.000  H
  H174     1.0000 0.29225  0.91557  0.55809  Biso   1.000  H
  N97      1.0000 0.36733  0.86666  0.58780  Biso   1.000  N
  H175     1.0000 0.29225  0.91563  0.55809  Biso   1.000  H
  H176     1.0000 0.70782  0.08443  0.44189  Biso   1.000  H
  N98      1.0000 0.68264  0.10948  0.54471  Biso   1.000  N
  H177     1.0000 0.70853  0.17213  0.46070  Biso   1.000  H
  C156     1.0000 0.67134  0.16699  0.60317  Biso   1.000  C
  C157     1.0000 0.58881  0.18621  0.64590  Biso   1.000  C
  H178     1.0000 0.42684  0.70691  0.44810  Biso   1.000  H
  H179     1.0000 0.36711  0.71138  0.47727  Biso   1.000  H
  N99      1.0000 0.42835  0.76832  0.54851  Biso   1.000  N
  C158     1.0000 0.38751  0.91840  0.64391  Biso   1.000  C
  C159     1.0000 0.39533  0.79671  0.60817  Biso   1.000  C
  C160     1.0000 0.68546  0.03823  0.57702  Biso   1.000  C
  C161     1.0000 0.67129  0.12028  0.68068  Biso   1.000  C
  H180     1.0000 0.70082  0.20680  0.61071  Biso   1.000  H
  N100     1.0000 0.61888  0.13702  0.70117  Biso   1.000  N
  O46      1.0000 0.54055  0.20759  0.66290  Biso   1.000  O
  C162     1.0000 0.48681  0.77211  0.57412  Biso   1.000  C
  N101     1.0000 0.43291  0.88900  0.69647  Biso   1.000  N
  O47      1.0000 0.36685  0.98287  0.64717  Biso   1.000  O
  O48      1.0000 0.36685  0.98292  0.64717  Biso   1.000  O
  H181     1.0000 0.36822  0.75792  0.62077  Biso   1.000  H
  C163     1.0000 0.44040  0.81045  0.67887  Biso   1.000  C
  N102     1.0000 0.67865  0.04354  0.65615  Biso   1.000  N
  O49      1.0000 0.69601  0.98106  0.54067  Biso   1.000  O
  H182     1.0000 0.70246  0.13611  0.72377  Biso   1.000  H
  C164     1.0000 0.60393  0.11219  0.77862  Biso   1.000  C
  N103     1.0000 0.49392  0.79467  0.65277  Biso   1.000  N
  O50      1.0000 0.52555  0.75679  0.53489  Biso   1.000  O
  C165     1.0000 0.45488  0.92389  0.77458  Biso   1.000  C
  H183     1.0000 0.43505  0.77799  0.72510  Biso   1.000  H
  C166     1.0000 0.69113  0.98202  0.71190  Biso   1.000  C
  H184     1.0000 0.63824  0.11519  0.81948  Biso   1.000  H
  H185     1.0000 0.57657  0.14833  0.79398  Biso   1.000  H
  N104     1.0000 0.58049  0.03698  0.78127  Biso   1.000  N
  C167     1.0000 0.54745  0.78710  0.70768  Biso   1.000  C
  H186     1.0000 0.43087  0.96681  0.78392  Biso   1.000  H
  H187     1.0000 0.45386  0.88702  0.81779  Biso   1.000  H
  N105     1.0000 0.51249  0.94962  0.77627  Biso   1.000  N
  H188     1.0000 0.71494  0.00119  0.76072  Biso   1.000  H
  H189     1.0000 0.71345  0.94441  0.68791  Biso   1.000  H
  N106     1.0000 0.64300  0.94447  0.73504  Biso   1.000  N
  C168     1.0000 0.52334  0.02562  0.76921  Biso   1.000  C
  C169     1.0000 0.61217  0.96901  0.79989  Biso   1.000  C
  H190     1.0000 0.54034  0.76029  0.75601  Biso   1.000  H
  H191     1.0000 0.57294  0.75549  0.68182  Biso   1.000  H
  N107     1.0000 0.57523  0.85456  0.73161  Biso   1.000  N
  C170     1.0000 0.56457  0.90381  0.79766  Biso   1.000  C
  C171     1.0000 0.61958  0.88119  0.69635  Biso   1.000  C
  O51      1.0000 0.48614  0.07561  0.75487  Biso   1.000  O
  C172     1.0000 0.65256  0.97540  0.88071  Biso   1.000  C
  C173     1.0000 0.56618  0.86253  0.87330  Biso   1.000  C
  O52      1.0000 0.63730  0.84822  0.64174  Biso   1.000  O
  O53      1.0000 0.63730  0.84828  0.64174  Biso   1.000  O
  H192     1.0000 0.67886  0.01679  0.87812  Biso   1.000  H
  H193     1.0000 0.67368  0.92858  0.89150  Biso   1.000  H
  H194     1.0000 0.63084  0.98490  0.92350  Biso   1.000  H
  H195     1.0000 0.60094  0.83330  0.88451  Biso   1.000  H
  H196     1.0000 0.53387  0.82860  0.86872  Biso   1.000  H
  H197     1.0000 0.56474  0.89799  0.91681  Biso   1.000  H
  Ne1      1.0000 0.49603  0.00064  0.49938  Biso   1.000  Ne
  He1      1.0000 0.40866  0.11563  0.54460  Biso   1.000  He
  He2      1.0000 0.56868  0.88300  0.42493  Biso   1.000  He
  Ar1      1.0000 0.48869  0.00113  0.48329  Biso   1.000  Ar
  Ne2      1.0000 0.99427  0.50983  0.99862  Biso   1.000  Ne
  He3      1.0000 0.94753  0.55406  0.14367  Biso   1.000  He
  He4      1.0000 0.05499  0.44330  0.84941  Biso   1.000  He
  Ar2      1.0000 0.00044  0.50012  0.99946  Biso   1.000  Ar
  Ne3      1.0000 0.50118  0.49998  0.99790  Biso   1.000  Ne
  He5      1.0000 0.40842  0.38403  0.04486  Biso   1.000  He
  He6      1.0000 0.58864  0.61158  0.95752  Biso   1.000  He
  Ar3      1.0000 0.49996  0.50087  0.99945  Biso   1.000  Ar
  Ne4      1.0000 0.99718  0.99387  0.49034  Biso   1.000  Ne
  He7      1.0000 0.94560  0.94377  0.64926  Biso   1.000  He
  He8      1.0000 0.05369  0.05538  0.35299  Biso   1.000  He
  Ar4      1.0000 0.99967  0.99938  0.49983  Biso   1.000  Ar
