data_image0
_cell_length_a       28.266
_cell_length_b       15.802
_cell_length_c       18.367
_cell_angle_alpha    90
_cell_angle_beta     119.6
_cell_angle_gamma    90

_symmetry_space_group_name_H-M    "P 1"
_symmetry_int_tables_number       1

loop_
  _symmetry_equiv_pos_as_xyz
  'x, y, z'

loop_
  _atom_site_label
  _atom_site_occupancy
  _atom_site_fract_x
  _atom_site_fract_y
  _atom_site_fract_z
  _atom_site_thermal_displace_type
  _atom_site_B_iso_or_equiv
  _atom_site_type_symbol
  C1       1.0000 0.57179  0.77383  0.83300  Biso   1.000  C
  N1       1.0000 0.57697  0.82749  0.77771  Biso   1.000  N
  N2       1.0000 0.57292  0.82407  0.89562  Biso   1.000  N
  O1       1.0000 0.56731  0.69808  0.82730  Biso   1.000  O
  C2       1.0000 0.57704  0.79503  0.70419  Biso   1.000  C
  C3       1.0000 0.58202  0.91387  0.80150  Biso   1.000  C
  C4       1.0000 0.57667  0.91280  0.88171  Biso   1.000  C
  C5       1.0000 0.56176  0.79047  0.95861  Biso   1.000  C
  N3       1.0000 0.63111  0.78750  0.71359  Biso   1.000  N
  H1       1.0000 0.55530  0.83217  0.65729  Biso   1.000  H
  H2       1.0000 0.55990  0.73978  0.69092  Biso   1.000  H
  H3       1.0000 0.55362  0.94861  0.75742  Biso   1.000  H
  N4       1.0000 0.63561  0.95001  0.83081  Biso   1.000  N
  H4       1.0000 0.54441  0.94380  0.87370  Biso   1.000  H
  N5       1.0000 0.62689  0.95311  0.94439  Biso   1.000  N
  H5       1.0000 0.53431  0.82553  0.96061  Biso   1.000  H
  H6       1.0000 0.54672  0.73408  0.94183  Biso   1.000  H
  N6       1.0000 0.60838  0.78591  0.04170  Biso   1.000  N
  C6       1.0000 0.65336  0.70940  0.71678  Biso   1.000  C
  C7       1.0000 0.65750  0.85369  0.69198  Biso   1.000  C
  C8       1.0000 0.65441  0.98057  0.77439  Biso   1.000  C
  C9       1.0000 0.65837  0.97918  0.91183  Biso   1.000  C
  C10      1.0000 0.63500  0.98399  0.02398  Biso   1.000  C
  C11      1.0000 0.62543  0.85711  0.10131  Biso   1.000  C
  C12      1.0000 0.62769  0.70928  0.08134  Biso   1.000  C
  O2       1.0000 0.63681  0.64201  0.72630  Biso   1.000  O
  N7       1.0000 0.69873  0.72212  0.70889  Biso   1.000  N
  C13      1.0000 0.70620  0.80819  0.69349  Biso   1.000  C
  H7       1.0000 0.63290  0.87710  0.63651  Biso   1.000  H
  N8       1.0000 0.68251  0.91988  0.75360  Biso   1.000  N
  H8       1.0000 0.67812  0.02879  0.80031  Biso   1.000  H
  H9       1.0000 0.62311  0.00032  0.72317  Biso   1.000  H
  H10      1.0000 0.62313  0.00032  0.72323  Biso   1.000  H
  O3       1.0000 0.69965  0.02158  0.94821  Biso   1.000  O
  N9       1.0000 0.65683  0.92121  0.08979  Biso   1.000  N
  H11      1.0000 0.60040  0.00380  0.01672  Biso   1.000  H
  H12      1.0000 0.65963  0.03189  0.04120  Biso   1.000  H
  C14      1.0000 0.66623  0.81312  0.18522  Biso   1.000  C
  H13      1.0000 0.59451  0.88141  0.10419  Biso   1.000  H
  N10      1.0000 0.66251  0.72668  0.16481  Biso   1.000  N
  O4       1.0000 0.61454  0.64099  0.04809  Biso   1.000  O
  C15      1.0000 0.73351  0.65169  0.71352  Biso   1.000  C
  H14      1.0000 0.70570  0.81439  0.64001  Biso   1.000  H
  N11      1.0000 0.75261  0.85040  0.76049  Biso   1.000  N
  C16      1.0000 0.73813  0.91571  0.79374  Biso   1.000  C
  C17      1.0000 0.71042  0.92102  0.15228  Biso   1.000  C
  H15      1.0000 0.65631  0.82312  0.22862  Biso   1.000  H
  N12      1.0000 0.71735  0.85571  0.20551  Biso   1.000  N
  C18      1.0000 0.69164  0.66080  0.22373  Biso   1.000  C
  H16      1.0000 0.71301  0.59948  0.70169  Biso   1.000  H
  N13      1.0000 0.78270  0.64429  0.79449  Biso   1.000  N
  H17      1.0000 0.74370  0.65903  0.67057  Biso   1.000  H
  H18      1.0000 0.74372  0.65903  0.67063  Biso   1.000  H
  C19      1.0000 0.80839  0.83920  0.77633  Biso   1.000  C
  O5       1.0000 0.76917  0.96368  0.84790  Biso   1.000  O
  O6       1.0000 0.74455  0.97178  0.15898  Biso   1.000  O
  C20      1.0000 0.76653  0.84831  0.28654  Biso   1.000  C
  H19      1.0000 0.67202  0.60802  0.20282  Biso   1.000  H
  H20      1.0000 0.69281  0.67359  0.27620  Biso   1.000  H
  N14      1.0000 0.74740  0.64960  0.23951  Biso   1.000  N
  C21      1.0000 0.83379  0.68688  0.81478  Biso   1.000  C
  C22      1.0000 0.78963  0.57898  0.84771  Biso   1.000  C
  N15      1.0000 0.83751  0.77332  0.83519  Biso   1.000  N
  H21      1.0000 0.82800  0.89198  0.79718  Biso   1.000  H
  H22      1.0000 0.80720  0.82641  0.72379  Biso   1.000  H
  H23      1.0000 0.78701  0.90052  0.29831  Biso   1.000  H
  H24      1.0000 0.75631  0.84097  0.32943  Biso   1.000  H
  N16      1.0000 0.80129  0.77788  0.29111  Biso   1.000  N
  C23      1.0000 0.76191  0.58429  0.20632  Biso   1.000  C
  C24      1.0000 0.79381  0.69181  0.30651  Biso   1.000  C
  H25      1.0000 0.84371  0.67688  0.77138  Biso   1.000  H
  C25      1.0000 0.87459  0.64289  0.89868  Biso   1.000  C
  N17      1.0000 0.84319  0.57879  0.91021  Biso   1.000  N
  O7       1.0000 0.75546  0.52822  0.84101  Biso   1.000  O
  C26      1.0000 0.87235  0.79072  0.91872  Biso   1.000  C
  C27      1.0000 0.84666  0.79060  0.28322  Biso   1.000  C
  N18      1.0000 0.81751  0.58012  0.24640  Biso   1.000  N
  O8       1.0000 0.73085  0.53632  0.15210  Biso   1.000  O
  C28      1.0000 0.84252  0.64631  0.30801  Biso   1.000  C
  H26      1.0000 0.79432  0.68561  0.35999  Biso   1.000  H
  H27      1.0000 0.90550  0.61859  0.89580  Biso   1.000  H
  N19      1.0000 0.89163  0.71409  0.95830  Biso   1.000  N
  C29      1.0000 0.86502  0.51601  0.97602  Biso   1.000  C
  O9       1.0000 0.88548  0.85901  0.95191  Biso   1.000  O
  N20      1.0000 0.86891  0.71250  0.28641  Biso   1.000  N
  O10      1.0000 0.86320  0.85799  0.27370  Biso   1.000  O
  C30      1.0000 0.84561  0.51943  0.22561  Biso   1.000  C
  H28      1.0000 0.86712  0.62290  0.36349  Biso   1.000  H
  C31      1.0000 0.93826  0.70953  0.04139  Biso   1.000  C
  H29      1.0000 0.89962  0.49620  0.98328  Biso   1.000  H
  H30      1.0000 0.84042  0.46811  0.95880  Biso   1.000  H
  N21      1.0000 0.87312  0.54689  0.05560  Biso   1.000  N
  C32      1.0000 0.92298  0.70497  0.29580  Biso   1.000  C
  N22      1.0000 0.86440  0.54999  0.16919  Biso   1.000  N
  H31      1.0000 0.82190  0.47121  0.19969  Biso   1.000  H
  H32      1.0000 0.87691  0.49968  0.27683  Biso   1.000  H
  H33      1.0000 0.96570  0.67447  0.03939  Biso   1.000  H
  N23      1.0000 0.92709  0.67593  0.10438  Biso   1.000  N
  H34      1.0000 0.95332  0.76592  0.05823  Biso   1.000  H
  C33      1.0000 0.84167  0.52082  0.08823  Biso   1.000  C
  C34      1.0000 0.92335  0.58720  0.11828  Biso   1.000  C
  N24      1.0000 0.92308  0.67251  0.22229  Biso   1.000  N
  H35      1.0000 0.94472  0.66783  0.34270  Biso   1.000  H
  H36      1.0000 0.94011  0.76022  0.30908  Biso   1.000  H
  H37      1.0000 0.94013  0.76022  0.30914  Biso   1.000  H
  C35      1.0000 0.91799  0.58613  0.19850  Biso   1.000  C
  C36      1.0000 0.92823  0.72617  0.16700  Biso   1.000  C
  O11      1.0000 0.80036  0.47842  0.05178  Biso   1.000  O
  H38      1.0000 0.95560  0.55620  0.12630  Biso   1.000  H
  H39      1.0000 0.94642  0.55139  0.24264  Biso   1.000  H
  O12      1.0000 0.93275  0.80192  0.17270  Biso   1.000  O
  O13      1.0000 0.43274  0.69808  0.67270  Biso   1.000  O
  C37      1.0000 0.42822  0.77383  0.66700  Biso   1.000  C
  N25      1.0000 0.42709  0.82407  0.60438  Biso   1.000  N
  N26      1.0000 0.42308  0.82749  0.72229  Biso   1.000  N
  C38      1.0000 0.43825  0.79047  0.54139  Biso   1.000  C
  C39      1.0000 0.42334  0.91280  0.61828  Biso   1.000  C
  C40      1.0000 0.41799  0.91387  0.69850  Biso   1.000  C
  C41      1.0000 0.42297  0.79503  0.79580  Biso   1.000  C
  N27      1.0000 0.39163  0.78591  0.45830  Biso   1.000  N
  H40      1.0000 0.46570  0.82553  0.53939  Biso   1.000  H
  H41      1.0000 0.45332  0.73408  0.55823  Biso   1.000  H
  N28      1.0000 0.37312  0.95311  0.55560  Biso   1.000  N
  H42      1.0000 0.45560  0.94380  0.62630  Biso   1.000  H
  N29      1.0000 0.36440  0.95001  0.66919  Biso   1.000  N
  H43      1.0000 0.44640  0.94861  0.74258  Biso   1.000  H
  H44      1.0000 0.44471  0.83217  0.84270  Biso   1.000  H
  H45      1.0000 0.44011  0.73978  0.80908  Biso   1.000  H
  N30      1.0000 0.36891  0.78750  0.78641  Biso   1.000  N
  C42      1.0000 0.37235  0.70928  0.41872  Biso   1.000  C
  C43      1.0000 0.37458  0.85711  0.39868  Biso   1.000  C
  C44      1.0000 0.36502  0.98399  0.47602  Biso   1.000  C
  C45      1.0000 0.34167  0.97918  0.58823  Biso   1.000  C
  C46      1.0000 0.34561  0.98057  0.72561  Biso   1.000  C
  C47      1.0000 0.34665  0.70940  0.78322  Biso   1.000  C
  C48      1.0000 0.34251  0.85369  0.80801  Biso   1.000  C
  N31      1.0000 0.33751  0.72668  0.33519  Biso   1.000  N
  O14      1.0000 0.38547  0.64099  0.45191  Biso   1.000  O
  C49      1.0000 0.33378  0.81312  0.31478  Biso   1.000  C
  H46      1.0000 0.40550  0.88141  0.39580  Biso   1.000  H
  N32      1.0000 0.34319  0.92121  0.41021  Biso   1.000  N
  H47      1.0000 0.39961  0.00380  0.48328  Biso   1.000  H
  H48      1.0000 0.34042  0.03189  0.45880  Biso   1.000  H
  O15      1.0000 0.30036  0.02158  0.55178  Biso   1.000  O
  N33      1.0000 0.31750  0.91988  0.74640  Biso   1.000  N
  H49      1.0000 0.32190  0.02879  0.69969  Biso   1.000  H
  H50      1.0000 0.37690  0.00032  0.77683  Biso   1.000  H
  N34      1.0000 0.30128  0.72212  0.79111  Biso   1.000  N
  O16      1.0000 0.36320  0.64201  0.77370  Biso   1.000  O
  C50      1.0000 0.29381  0.80819  0.80651  Biso   1.000  C
  H51      1.0000 0.36711  0.87710  0.86349  Biso   1.000  H
  C51      1.0000 0.30839  0.66080  0.27633  Biso   1.000  C
  N35      1.0000 0.28270  0.85571  0.29449  Biso   1.000  N
  H52      1.0000 0.34370  0.82312  0.27138  Biso   1.000  H
  C52      1.0000 0.28963  0.92102  0.34771  Biso   1.000  C
  C53      1.0000 0.26190  0.91571  0.70632  Biso   1.000  C
  C54      1.0000 0.26653  0.65169  0.78654  Biso   1.000  C
  N36      1.0000 0.24740  0.85040  0.73951  Biso   1.000  N
  H53      1.0000 0.29431  0.81439  0.85999  Biso   1.000  H
  N37      1.0000 0.25261  0.64960  0.26049  Biso   1.000  N
  H54      1.0000 0.32799  0.60802  0.29718  Biso   1.000  H
  H55      1.0000 0.30720  0.67359  0.22379  Biso   1.000  H
  C55      1.0000 0.23350  0.84831  0.21353  Biso   1.000  C
  O17      1.0000 0.25546  0.97178  0.34101  Biso   1.000  O
  O18      1.0000 0.23084  0.96368  0.65210  Biso   1.000  O
  N38      1.0000 0.21735  0.64429  0.70551  Biso   1.000  N
  H56      1.0000 0.28700  0.59948  0.79831  Biso   1.000  H
  H57      1.0000 0.25631  0.65903  0.82943  Biso   1.000  H
  C56      1.0000 0.19164  0.83920  0.72373  Biso   1.000  C
  C57      1.0000 0.23811  0.58429  0.29368  Biso   1.000  C
  C58      1.0000 0.20620  0.69181  0.19349  Biso   1.000  C
  N39      1.0000 0.19872  0.77788  0.20889  Biso   1.000  N
  H58      1.0000 0.21300  0.90052  0.20169  Biso   1.000  H
  H59      1.0000 0.24372  0.84097  0.17063  Biso   1.000  H
  C59      1.0000 0.21042  0.57898  0.65228  Biso   1.000  C
  C60      1.0000 0.16622  0.68688  0.68522  Biso   1.000  C
  N40      1.0000 0.16250  0.77332  0.66481  Biso   1.000  N
  H60      1.0000 0.17201  0.89198  0.70282  Biso   1.000  H
  H61      1.0000 0.19281  0.82641  0.77620  Biso   1.000  H
  O19      1.0000 0.26917  0.53632  0.34790  Biso   1.000  O
  N41      1.0000 0.18251  0.58012  0.25360  Biso   1.000  N
  C61      1.0000 0.15749  0.64631  0.19198  Biso   1.000  C
  H62      1.0000 0.20570  0.68561  0.14001  Biso   1.000  H
  C62      1.0000 0.15335  0.79060  0.21678  Biso   1.000  C
  N42      1.0000 0.15682  0.57879  0.58979  Biso   1.000  N
  O20      1.0000 0.24455  0.52822  0.65899  Biso   1.000  O
  C63      1.0000 0.12543  0.64289  0.60131  Biso   1.000  C
  H63      1.0000 0.15631  0.67688  0.72862  Biso   1.000  H
  C64      1.0000 0.12766  0.79072  0.58128  Biso   1.000  C
  C65      1.0000 0.15440  0.51943  0.27439  Biso   1.000  C
  H64      1.0000 0.13290  0.62290  0.13651  Biso   1.000  H
  N43      1.0000 0.13110  0.71250  0.21359  Biso   1.000  N
  O21      1.0000 0.13681  0.85799  0.22630  Biso   1.000  O
  C66      1.0000 0.13499  0.51601  0.52398  Biso   1.000  C
  N44      1.0000 0.10838  0.71409  0.54170  Biso   1.000  N
  H65      1.0000 0.09451  0.61859  0.60419  Biso   1.000  H
  O22      1.0000 0.11453  0.85901  0.54809  Biso   1.000  O
  H66      1.0000 0.17811  0.47121  0.30031  Biso   1.000  H
  H67      1.0000 0.12312  0.49968  0.22323  Biso   1.000  H
  N45      1.0000 0.13561  0.54999  0.33081  Biso   1.000  N
  C67      1.0000 0.07704  0.70497  0.20420  Biso   1.000  C
  N46      1.0000 0.12689  0.54689  0.44440  Biso   1.000  N
  H68      1.0000 0.10040  0.49620  0.51672  Biso   1.000  H
  H69      1.0000 0.15962  0.46811  0.54120  Biso   1.000  H
  C68      1.0000 0.06176  0.70953  0.45861  Biso   1.000  C
  C69      1.0000 0.08202  0.58613  0.30150  Biso   1.000  C
  C70      1.0000 0.15836  0.52082  0.41183  Biso   1.000  C
  H70      1.0000 0.05530  0.66783  0.15729  Biso   1.000  H
  H71      1.0000 0.05990  0.76022  0.19092  Biso   1.000  H
  N47      1.0000 0.07696  0.67251  0.27771  Biso   1.000  N
  C71      1.0000 0.07666  0.58720  0.38172  Biso   1.000  C
  N48      1.0000 0.07292  0.67593  0.39562  Biso   1.000  N
  H72      1.0000 0.03431  0.67447  0.46061  Biso   1.000  H
  H73      1.0000 0.04671  0.76592  0.44183  Biso   1.000  H
  H74      1.0000 0.05361  0.55139  0.25742  Biso   1.000  H
  O23      1.0000 0.19965  0.47842  0.44822  Biso   1.000  O
  C72      1.0000 0.07178  0.72617  0.33300  Biso   1.000  C
  H75      1.0000 0.04441  0.55620  0.37370  Biso   1.000  H
  O24      1.0000 0.06727  0.80192  0.32730  Biso   1.000  O
  O25      1.0000 0.38548  0.35901  0.95191  Biso   1.000  O
  C73      1.0000 0.37235  0.29072  0.91872  Biso   1.000  C
  N49      1.0000 0.33751  0.27332  0.83519  Biso   1.000  N
  N50      1.0000 0.39163  0.21409  0.95830  Biso   1.000  N
  C74      1.0000 0.30839  0.33920  0.77633  Biso   1.000  C
  C75      1.0000 0.33379  0.18688  0.81478  Biso   1.000  C
  C76      1.0000 0.37459  0.14289  0.89868  Biso   1.000  C
  C77      1.0000 0.43826  0.20953  0.04139  Biso   1.000  C
  N51      1.0000 0.25261  0.35040  0.76049  Biso   1.000  N
  H76      1.0000 0.32800  0.39198  0.79718  Biso   1.000  H
  H77      1.0000 0.30720  0.32641  0.72379  Biso   1.000  H
  N52      1.0000 0.28270  0.14429  0.79449  Biso   1.000  N
  H78      1.0000 0.34371  0.17688  0.77138  Biso   1.000  H
  N53      1.0000 0.34319  0.07879  0.91021  Biso   1.000  N
  H79      1.0000 0.40550  0.11859  0.89580  Biso   1.000  H
  H80      1.0000 0.46570  0.17447  0.03939  Biso   1.000  H
  N54      1.0000 0.42709  0.17593  0.10438  Biso   1.000  N
  H81      1.0000 0.45332  0.26592  0.05823  Biso   1.000  H
  C78      1.0000 0.20620  0.30819  0.69349  Biso   1.000  C
  C79      1.0000 0.23813  0.41571  0.79374  Biso   1.000  C
  C80      1.0000 0.23351  0.15169  0.71352  Biso   1.000  C
  C81      1.0000 0.28959  0.07898  0.84771  Biso   1.000  C
  C82      1.0000 0.28963  0.07898  0.84771  Biso   1.000  C
  C83      1.0000 0.36502  0.01601  0.97602  Biso   1.000  C
  C84      1.0000 0.42335  0.08720  0.11828  Biso   1.000  C
  C85      1.0000 0.42823  0.22617  0.16700  Biso   1.000  C
  C86      1.0000 0.15750  0.35369  0.69198  Biso   1.000  C
  H82      1.0000 0.20570  0.31439  0.64001  Biso   1.000  H
  N55      1.0000 0.19873  0.22212  0.70889  Biso   1.000  N
  N56      1.0000 0.18251  0.41988  0.75360  Biso   1.000  N
  O26      1.0000 0.26917  0.46368  0.84790  Biso   1.000  O
  H83      1.0000 0.21301  0.09948  0.70169  Biso   1.000  H
  H84      1.0000 0.24370  0.15903  0.67057  Biso   1.000  H
  H85      1.0000 0.24372  0.15903  0.67063  Biso   1.000  H
  O27      1.0000 0.25546  0.02822  0.84101  Biso   1.000  O
  H86      1.0000 0.39962  0.99620  0.98328  Biso   1.000  H
  H87      1.0000 0.34042  0.96811  0.95880  Biso   1.000  H
  N57      1.0000 0.37312  0.04689  0.05560  Biso   1.000  N
  C87      1.0000 0.41799  0.08613  0.19850  Biso   1.000  C
  H88      1.0000 0.45560  0.05620  0.12630  Biso   1.000  H
  N58      1.0000 0.42308  0.17251  0.22229  Biso   1.000  N
  O28      1.0000 0.43275  0.30192  0.17270  Biso   1.000  O
  H89      1.0000 0.13290  0.37710  0.63651  Biso   1.000  H
  N59      1.0000 0.13111  0.28750  0.71359  Biso   1.000  N
  C88      1.0000 0.15336  0.20940  0.71678  Biso   1.000  C
  C89      1.0000 0.15441  0.48057  0.77439  Biso   1.000  C
  C90      1.0000 0.34167  0.02082  0.08823  Biso   1.000  C
  N60      1.0000 0.36440  0.04999  0.16919  Biso   1.000  N
  H90      1.0000 0.44642  0.05139  0.24264  Biso   1.000  H
  C91      1.0000 0.42298  0.20497  0.29580  Biso   1.000  C
  C92      1.0000 0.07704  0.29503  0.70419  Biso   1.000  C
  O29      1.0000 0.13681  0.14201  0.72630  Biso   1.000  O
  H91      1.0000 0.17812  0.52879  0.80031  Biso   1.000  H
  N61      1.0000 0.13561  0.45001  0.83081  Biso   1.000  N
  H92      1.0000 0.12311  0.50032  0.72317  Biso   1.000  H
  H93      1.0000 0.12313  0.50032  0.72323  Biso   1.000  H
  O30      1.0000 0.30036  0.97842  0.05178  Biso   1.000  O
  C93      1.0000 0.34561  0.01943  0.22561  Biso   1.000  C
  H94      1.0000 0.44472  0.16783  0.34270  Biso   1.000  H
  H95      1.0000 0.44011  0.26022  0.30908  Biso   1.000  H
  N62      1.0000 0.36891  0.21250  0.28641  Biso   1.000  N
  H96      1.0000 0.44013  0.26022  0.30914  Biso   1.000  H
  H97      1.0000 0.05530  0.33217  0.65729  Biso   1.000  H
  H98      1.0000 0.05990  0.23978  0.69092  Biso   1.000  H
  N63      1.0000 0.07693  0.32749  0.77771  Biso   1.000  N
  N64      1.0000 0.07697  0.32749  0.77771  Biso   1.000  N
  C94      1.0000 0.08202  0.41387  0.80150  Biso   1.000  C
  C95      1.0000 0.15837  0.47918  0.91183  Biso   1.000  C
  H99      1.0000 0.32190  0.97121  0.19969  Biso   1.000  H
  H100     1.0000 0.37691  0.99968  0.27683  Biso   1.000  H
  N65      1.0000 0.31751  0.08012  0.24640  Biso   1.000  N
  C96      1.0000 0.34252  0.14631  0.30801  Biso   1.000  C
  C97      1.0000 0.34666  0.29060  0.28322  Biso   1.000  C
  C98      1.0000 0.07179  0.27383  0.83300  Biso   1.000  C
  C99      1.0000 0.07667  0.41280  0.88171  Biso   1.000  C
  H101     1.0000 0.05362  0.44861  0.75742  Biso   1.000  H
  N66      1.0000 0.12689  0.45311  0.94439  Biso   1.000  N
  O31      1.0000 0.19965  0.52158  0.94821  Biso   1.000  O
  C100     1.0000 0.26191  0.08429  0.20632  Biso   1.000  C
  C101     1.0000 0.29381  0.19181  0.30651  Biso   1.000  C
  H102     1.0000 0.36712  0.12290  0.36349  Biso   1.000  H
  N67      1.0000 0.30129  0.27788  0.29111  Biso   1.000  N
  O32      1.0000 0.36320  0.35799  0.27370  Biso   1.000  O
  N68      1.0000 0.07292  0.32407  0.89562  Biso   1.000  N
  O33      1.0000 0.06727  0.19808  0.82730  Biso   1.000  O
  O34      1.0000 0.06731  0.19808  0.82730  Biso   1.000  O
  H103     1.0000 0.04441  0.44380  0.87370  Biso   1.000  H
  C102     1.0000 0.13500  0.48399  0.02398  Biso   1.000  C
  N69      1.0000 0.24740  0.14960  0.23951  Biso   1.000  N
  O35      1.0000 0.23085  0.03632  0.15210  Biso   1.000  O
  H104     1.0000 0.29432  0.18561  0.35999  Biso   1.000  H
  C103     1.0000 0.26653  0.34831  0.28654  Biso   1.000  C
  C104     1.0000 0.06176  0.29047  0.95861  Biso   1.000  C
  H105     1.0000 0.10040  0.50380  0.01672  Biso   1.000  H
  N70      1.0000 0.15683  0.42121  0.08979  Biso   1.000  N
  H106     1.0000 0.15963  0.53189  0.04120  Biso   1.000  H
  C105     1.0000 0.19164  0.16080  0.22373  Biso   1.000  C
  N71      1.0000 0.21735  0.35571  0.20551  Biso   1.000  N
  H107     1.0000 0.28701  0.40052  0.29831  Biso   1.000  H
  H108     1.0000 0.25631  0.34097  0.32943  Biso   1.000  H
  H109     1.0000 0.03431  0.32553  0.96061  Biso   1.000  H
  H110     1.0000 0.04672  0.23408  0.94183  Biso   1.000  H
  N72      1.0000 0.10838  0.28591  0.04170  Biso   1.000  N
  C106     1.0000 0.12543  0.35711  0.10131  Biso   1.000  C
  C107     1.0000 0.21042  0.42102  0.15228  Biso   1.000  C
  N73      1.0000 0.16251  0.22668  0.16481  Biso   1.000  N
  H111     1.0000 0.17202  0.10802  0.20282  Biso   1.000  H
  H112     1.0000 0.19281  0.17359  0.27620  Biso   1.000  H
  C108     1.0000 0.16623  0.31312  0.18522  Biso   1.000  C
  C109     1.0000 0.12769  0.20928  0.08134  Biso   1.000  C
  H113     1.0000 0.09451  0.38141  0.10419  Biso   1.000  H
  O36      1.0000 0.24455  0.47178  0.15898  Biso   1.000  O
  H114     1.0000 0.15631  0.32312  0.22862  Biso   1.000  H
  O37      1.0000 0.11454  0.14099  0.04809  Biso   1.000  O
  C110     1.0000 0.69164  0.33920  0.72373  Biso   1.000  C
  N74      1.0000 0.66250  0.27332  0.66481  Biso   1.000  N
  H115     1.0000 0.67201  0.39198  0.70282  Biso   1.000  H
  H116     1.0000 0.69281  0.32641  0.77620  Biso   1.000  H
  N75      1.0000 0.74740  0.35040  0.73951  Biso   1.000  N
  C111     1.0000 0.62766  0.29072  0.58128  Biso   1.000  C
  C112     1.0000 0.66622  0.18688  0.68522  Biso   1.000  C
  C113     1.0000 0.79381  0.30819  0.80651  Biso   1.000  C
  C114     1.0000 0.76190  0.41571  0.70632  Biso   1.000  C
  N76      1.0000 0.60838  0.21409  0.54170  Biso   1.000  N
  O38      1.0000 0.61453  0.35901  0.54809  Biso   1.000  O
  C115     1.0000 0.62543  0.14289  0.60131  Biso   1.000  C
  H117     1.0000 0.65631  0.17688  0.72862  Biso   1.000  H
  N77      1.0000 0.71735  0.14429  0.70551  Biso   1.000  N
  N78      1.0000 0.80128  0.22212  0.79111  Biso   1.000  N
  C116     1.0000 0.84251  0.35369  0.80801  Biso   1.000  C
  H118     1.0000 0.79431  0.31439  0.85999  Biso   1.000  H
  N79      1.0000 0.81750  0.41988  0.74640  Biso   1.000  N
  O39      1.0000 0.73084  0.46368  0.65210  Biso   1.000  O
  C117     1.0000 0.56176  0.20953  0.45861  Biso   1.000  C
  H119     1.0000 0.59451  0.11859  0.60419  Biso   1.000  H
  N80      1.0000 0.65682  0.07879  0.58979  Biso   1.000  N
  C118     1.0000 0.71042  0.07898  0.65228  Biso   1.000  C
  C119     1.0000 0.76653  0.15169  0.78654  Biso   1.000  C
  C120     1.0000 0.84665  0.20940  0.78322  Biso   1.000  C
  N81      1.0000 0.86891  0.28750  0.78641  Biso   1.000  N
  H120     1.0000 0.86711  0.37710  0.86349  Biso   1.000  H
  C121     1.0000 0.84561  0.48057  0.72561  Biso   1.000  C
  H121     1.0000 0.53431  0.17447  0.46061  Biso   1.000  H
  H122     1.0000 0.54671  0.26592  0.44183  Biso   1.000  H
  N82      1.0000 0.57292  0.17593  0.39562  Biso   1.000  N
  C122     1.0000 0.63499  0.01601  0.52398  Biso   1.000  C
  O40      1.0000 0.74455  0.02822  0.65899  Biso   1.000  O
  H123     1.0000 0.78700  0.09948  0.79831  Biso   1.000  H
  H124     1.0000 0.75631  0.15903  0.82943  Biso   1.000  H
  O41      1.0000 0.86320  0.14201  0.77370  Biso   1.000  O
  C123     1.0000 0.92297  0.29503  0.79580  Biso   1.000  C
  H125     1.0000 0.82190  0.52879  0.69969  Biso   1.000  H
  H126     1.0000 0.87690  0.50032  0.77683  Biso   1.000  H
  N83      1.0000 0.86440  0.45001  0.66919  Biso   1.000  N
  C124     1.0000 0.57178  0.22617  0.33300  Biso   1.000  C
  C125     1.0000 0.57666  0.08720  0.38172  Biso   1.000  C
  N84      1.0000 0.62689  0.04689  0.44440  Biso   1.000  N
  H127     1.0000 0.60040  0.99620  0.51672  Biso   1.000  H
  H128     1.0000 0.65962  0.96811  0.54120  Biso   1.000  H
  H129     1.0000 0.94471  0.33217  0.84270  Biso   1.000  H
  H130     1.0000 0.94011  0.23978  0.80908  Biso   1.000  H
  N85      1.0000 0.92308  0.32749  0.72229  Biso   1.000  N
  C126     1.0000 0.84167  0.47918  0.58823  Biso   1.000  C
  C127     1.0000 0.91799  0.41387  0.69850  Biso   1.000  C
  N86      1.0000 0.57696  0.17251  0.27771  Biso   1.000  N
  O42      1.0000 0.56727  0.30192  0.32730  Biso   1.000  O
  C128     1.0000 0.58202  0.08613  0.30150  Biso   1.000  C
  H131     1.0000 0.54441  0.05620  0.37370  Biso   1.000  H
  C129     1.0000 0.65836  0.02082  0.41183  Biso   1.000  C
  C130     1.0000 0.92822  0.27383  0.66700  Biso   1.000  C
  N87      1.0000 0.87312  0.45311  0.55560  Biso   1.000  N
  O43      1.0000 0.80036  0.52158  0.55178  Biso   1.000  O
  C131     1.0000 0.92334  0.41280  0.61828  Biso   1.000  C
  H132     1.0000 0.94640  0.44861  0.74258  Biso   1.000  H
  C132     1.0000 0.57704  0.20497  0.20420  Biso   1.000  C
  H133     1.0000 0.55361  0.05139  0.25742  Biso   1.000  H
  N88      1.0000 0.63561  0.04999  0.33081  Biso   1.000  N
  O44      1.0000 0.69965  0.97842  0.44822  Biso   1.000  O
  N89      1.0000 0.92709  0.32407  0.60438  Biso   1.000  N
  O45      1.0000 0.93274  0.19808  0.67270  Biso   1.000  O
  C133     1.0000 0.86502  0.48399  0.47602  Biso   1.000  C
  H134     1.0000 0.95560  0.44380  0.62630  Biso   1.000  H
  H135     1.0000 0.55530  0.16783  0.15729  Biso   1.000  H
  H136     1.0000 0.55990  0.26022  0.19092  Biso   1.000  H
  N90      1.0000 0.63110  0.21250  0.21359  Biso   1.000  N
  C134     1.0000 0.65440  0.01943  0.27439  Biso   1.000  C
  C135     1.0000 0.93825  0.29047  0.54139  Biso   1.000  C
  N91      1.0000 0.84319  0.42121  0.41021  Biso   1.000  N
  H137     1.0000 0.89961  0.50380  0.48328  Biso   1.000  H
  H138     1.0000 0.84042  0.53189  0.45880  Biso   1.000  H
  C136     1.0000 0.65335  0.29060  0.21678  Biso   1.000  C
  C137     1.0000 0.65749  0.14631  0.19198  Biso   1.000  C
  N92      1.0000 0.68251  0.08012  0.25360  Biso   1.000  N
  H139     1.0000 0.67811  0.97121  0.30031  Biso   1.000  H
  H140     1.0000 0.62312  0.99968  0.22323  Biso   1.000  H
  N93      1.0000 0.89163  0.28591  0.45830  Biso   1.000  N
  H141     1.0000 0.96570  0.32553  0.53939  Biso   1.000  H
  H142     1.0000 0.95332  0.23408  0.55823  Biso   1.000  H
  C138     1.0000 0.78963  0.42102  0.34771  Biso   1.000  C
  C139     1.0000 0.87458  0.35711  0.39868  Biso   1.000  C
  N94      1.0000 0.69872  0.27788  0.20889  Biso   1.000  N
  O46      1.0000 0.63681  0.35799  0.22630  Biso   1.000  O
  H143     1.0000 0.63290  0.12290  0.13651  Biso   1.000  H
  C140     1.0000 0.70620  0.19181  0.19349  Biso   1.000  C
  C141     1.0000 0.73811  0.08429  0.29368  Biso   1.000  C
  C142     1.0000 0.87235  0.20928  0.41872  Biso   1.000  C
  N95      1.0000 0.78270  0.35571  0.29449  Biso   1.000  N
  O47      1.0000 0.75546  0.47178  0.34101  Biso   1.000  O
  C143     1.0000 0.83378  0.31312  0.31478  Biso   1.000  C
  H144     1.0000 0.90550  0.38141  0.39580  Biso   1.000  H
  C144     1.0000 0.73350  0.34831  0.21353  Biso   1.000  C
  H145     1.0000 0.70570  0.18561  0.14001  Biso   1.000  H
  N96      1.0000 0.75261  0.14960  0.26049  Biso   1.000  N
  O48      1.0000 0.76917  0.03632  0.34790  Biso   1.000  O
  N97      1.0000 0.83751  0.22668  0.33519  Biso   1.000  N
  O49      1.0000 0.88547  0.14099  0.45191  Biso   1.000  O
  H146     1.0000 0.84370  0.32312  0.27138  Biso   1.000  H
  H147     1.0000 0.71300  0.40052  0.20169  Biso   1.000  H
  H148     1.0000 0.74372  0.34097  0.17063  Biso   1.000  H
  C145     1.0000 0.80839  0.16080  0.27633  Biso   1.000  C
  H149     1.0000 0.82799  0.10802  0.29718  Biso   1.000  H
  H150     1.0000 0.80720  0.17359  0.22379  Biso   1.000  H
