data_image0
_cell_length_a       12.485
_cell_length_b       17.202
_cell_length_c       17.659
_cell_angle_alpha    94.55
_cell_angle_beta     93.3
_cell_angle_gamma    111.02

_symmetry_space_group_name_H-M    "P 1"
_symmetry_int_tables_number       1

loop_
  _symmetry_equiv_pos_as_xyz
  'x, y, z'

loop_
  _atom_site_label
  _atom_site_occupancy
  _atom_site_fract_x
  _atom_site_fract_y
  _atom_site_fract_z
  _atom_site_thermal_displace_type
  _atom_site_B_iso_or_equiv
  _atom_site_type_symbol
  C1       1.0000 0.97075  0.75813  0.87951  Biso   1.000  C
  N1       1.0000 0.93083  0.71648  0.94101  Biso   1.000  N
  N2       1.0000 0.93094  0.71655  0.94101  Biso   1.000  N
  N3       1.0000 0.93086  0.71655  0.94101  Biso   1.000  N
  O1       1.0000 0.91216  0.76157  0.82360  Biso   1.000  O
  O2       1.0000 0.91219  0.76163  0.82360  Biso   1.000  O
  N4       1.0000 0.08849  0.79232  0.89120  Biso   1.000  N
  N5       1.0000 0.08857  0.79232  0.89120  Biso   1.000  N
  C2       1.0000 0.81006  0.67462  0.94831  Biso   1.000  C
  C3       1.0000 0.81014  0.67462  0.94831  Biso   1.000  C
  C4       1.0000 0.97083  0.75813  0.87951  Biso   1.000  C
  C5       1.0000 0.02303  0.71720  0.99578  Biso   1.000  C
  C6       1.0000 0.02314  0.71727  0.99578  Biso   1.000  C
  C7       1.0000 0.02311  0.71720  0.99578  Biso   1.000  C
  C8       1.0000 0.13393  0.76705  0.95841  Biso   1.000  C
  C9       1.0000 0.16010  0.83058  0.83318  Biso   1.000  C
  C10      1.0000 0.16013  0.83064  0.83318  Biso   1.000  C
  N6       1.0000 0.76412  0.72049  0.00091  Biso   1.000  N
  N7       1.0000 0.76401  0.72043  0.00091  Biso   1.000  N
  H1       1.0000 0.76790  0.66577  0.89851  Biso   1.000  H
  H2       1.0000 0.76798  0.66577  0.89851  Biso   1.000  H
  H3       1.0000 0.79791  0.62015  0.96543  Biso   1.000  H
  H4       1.0000 0.79787  0.62008  0.96537  Biso   1.000  H
  H5       1.0000 0.01929  0.66028  0.00211  Biso   1.000  H
  N8       1.0000 0.03350  0.76387  0.06732  Biso   1.000  N
  H6       1.0000 0.01917  0.66022  0.00211  Biso   1.000  H
  H7       1.0000 0.01925  0.66022  0.00211  Biso   1.000  H
  N9       1.0000 0.03339  0.76381  0.06732  Biso   1.000  N
  H8       1.0000 0.17935  0.73257  0.94540  Biso   1.000  H
  H9       1.0000 0.17938  0.73263  0.94540  Biso   1.000  H
  N10      1.0000 0.19389  0.83445  0.01620  Biso   1.000  N
  H10      1.0000 0.11226  0.82041  0.78543  Biso   1.000  H
  H11      1.0000 0.21594  0.80407  0.82599  Biso   1.000  H
  N11      1.0000 0.22044  0.91947  0.85081  Biso   1.000  N
  H12      1.0000 0.11237  0.82047  0.78543  Biso   1.000  H
  H13      1.0000 0.11233  0.82040  0.78537  Biso   1.000  H
  C11      1.0000 0.69220  0.75871  0.97650  Biso   1.000  C
  C12      1.0000 0.75575  0.70755  0.08090  Biso   1.000  C
  C13      1.0000 0.75564  0.70749  0.08090  Biso   1.000  C
  C14      1.0000 0.96573  0.73246  0.13002  Biso   1.000  C
  C15      1.0000 0.96570  0.73239  0.13002  Biso   1.000  C
  C16      1.0000 0.13920  0.82949  0.08193  Biso   1.000  C
  C17      1.0000 0.13909  0.82942  0.08193  Biso   1.000  C
  C18      1.0000 0.31370  0.88405  0.01592  Biso   1.000  C
  C19      1.0000 0.19743  0.97782  0.81110  Biso   1.000  C
  C20      1.0000 0.33532  0.95364  0.89349  Biso   1.000  C
  O3       1.0000 0.67090  0.76912  0.91049  Biso   1.000  O
  N12      1.0000 0.64592  0.78332  0.03788  Biso   1.000  N
  C21      1.0000 0.67264  0.75221  0.10629  Biso   1.000  C
  C22      1.0000 0.67256  0.75221  0.10629  Biso   1.000  C
  H14      1.0000 0.72435  0.64776  0.08769  Biso   1.000  H
  N13      1.0000 0.86158  0.75131  0.13042  Biso   1.000  N
  H15      1.0000 0.72424  0.64769  0.08769  Biso   1.000  H
  H16      1.0000 0.94484  0.67224  0.12688  Biso   1.000  H
  H17      1.0000 0.01272  0.75663  0.17772  Biso   1.000  H
  O4       1.0000 0.17465  0.87581  0.14160  Biso   1.000  O
  O5       1.0000 0.17457  0.87581  0.14160  Biso   1.000  O
  H18      1.0000 0.35220  0.84914  0.99338  Biso   1.000  H
  N14      1.0000 0.33704  0.95756  0.97439  Biso   1.000  N
  H19      1.0000 0.34686  0.90235  0.06818  Biso   1.000  H
  H20      1.0000 0.34678  0.90235  0.06818  Biso   1.000  H
  O6       1.0000 0.11356  0.96376  0.76740  Biso   1.000  O
  N15      1.0000 0.28615  0.05433  0.82942  Biso   1.000  N
  N16      1.0000 0.28604  0.05427  0.82942  Biso   1.000  N
  H21      1.0000 0.38557  0.92542  0.87437  Biso   1.000  H
  H22      1.0000 0.38565  0.92542  0.87437  Biso   1.000  H
  C23      1.0000 0.37868  0.04689  0.87677  Biso   1.000  C
  C24      1.0000 0.37857  0.04683  0.87677  Biso   1.000  C
  C25      1.0000 0.55900  0.81934  0.02961  Biso   1.000  C
  C26      1.0000 0.55892  0.81934  0.02961  Biso   1.000  C
  H23      1.0000 0.60334  0.71326  0.12512  Biso   1.000  H
  H24      1.0000 0.60323  0.71320  0.12512  Biso   1.000  H
  N17      1.0000 0.74479  0.81450  0.16671  Biso   1.000  N
  C27      1.0000 0.85177  0.81234  0.17852  Biso   1.000  C
  C28      1.0000 0.37672  0.03783  0.00810  Biso   1.000  C
  C29      1.0000 0.37661  0.03776  0.00810  Biso   1.000  C
  C30      1.0000 0.29369  0.12613  0.79022  Biso   1.000  C
  C31      1.0000 0.29366  0.12607  0.79022  Biso   1.000  C
  C32      1.0000 0.29358  0.12607  0.79022  Biso   1.000  C
  N18      1.0000 0.39760  0.09121  0.95322  Biso   1.000  N
  H25      1.0000 0.44990  0.06196  0.85138  Biso   1.000  H
  H26      1.0000 0.44998  0.06196  0.85138  Biso   1.000  H
  N19      1.0000 0.39749  0.09115  0.95322  Biso   1.000  N
  H27      1.0000 0.52331  0.80511  0.97758  Biso   1.000  H
  H28      1.0000 0.49967  0.79475  0.06299  Biso   1.000  H
  N20      1.0000 0.60248  0.90886  0.04678  Biso   1.000  N
  H29      1.0000 0.49959  0.79475  0.06299  Biso   1.000  H
  N21      1.0000 0.60237  0.90880  0.04678  Biso   1.000  N
  C33      1.0000 0.70630  0.87394  0.20978  Biso   1.000  C
  O7       1.0000 0.92679  0.85743  0.22718  Biso   1.000  O
  O8       1.0000 0.39367  0.05819  0.07788  Biso   1.000  O
  O9       1.0000 0.39370  0.05825  0.07788  Biso   1.000  O
  H30      1.0000 0.37300  0.15443  0.77990  Biso   1.000  H
  N22      1.0000 0.25518  0.18551  0.83330  Biso   1.000  N
  H31      1.0000 0.37297  0.15437  0.77990  Biso   1.000  H
  H32      1.0000 0.24731  0.10721  0.74167  Biso   1.000  H
  H33      1.0000 0.37289  0.15437  0.77990  Biso   1.000  H
  H34      1.0000 0.24720  0.10715  0.74167  Biso   1.000  H
  N23      1.0000 0.25507  0.18545  0.83330  Biso   1.000  N
  C34      1.0000 0.44105  0.18067  0.97039  Biso   1.000  C
  C35      1.0000 0.62335  0.96224  0.99190  Biso   1.000  C
  C36      1.0000 0.62327  0.96224  0.99190  Biso   1.000  C
  C37      1.0000 0.62139  0.95317  0.12318  Biso   1.000  C
  C38      1.0000 0.62128  0.95311  0.12318  Biso   1.000  C
  H35      1.0000 0.75276  0.89286  0.25827  Biso   1.000  H
  N24      1.0000 0.71393  0.94574  0.17059  Biso   1.000  N
  H36      1.0000 0.62700  0.84564  0.22011  Biso   1.000  H
  H37      1.0000 0.75265  0.89279  0.25827  Biso   1.000  H
  C39      1.0000 0.14823  0.18773  0.82149  Biso   1.000  C
  C40      1.0000 0.32741  0.24780  0.89371  Biso   1.000  C
  C41      1.0000 0.14812  0.18767  0.82149  Biso   1.000  C
  C42      1.0000 0.32730  0.24774  0.89371  Biso   1.000  C
  H38      1.0000 0.50041  0.20532  0.93702  Biso   1.000  H
  N25      1.0000 0.35405  0.21669  0.96212  Biso   1.000  N
  H39      1.0000 0.50030  0.20526  0.93702  Biso   1.000  H
  H40      1.0000 0.47666  0.19489  0.02242  Biso   1.000  H
  H41      1.0000 0.47677  0.19496  0.02242  Biso   1.000  H
  O10      1.0000 0.60630  0.94182  0.92213  Biso   1.000  O
  O11      1.0000 0.60637  0.94181  0.92207  Biso   1.000  O
  O12      1.0000 0.60638  0.94182  0.92213  Biso   1.000  O
  O13      1.0000 0.60629  0.94181  0.92207  Biso   1.000  O
  N26      1.0000 0.66296  0.04250  0.02562  Biso   1.000  N
  H42      1.0000 0.55007  0.93804  0.14862  Biso   1.000  H
  H43      1.0000 0.54999  0.93804  0.14862  Biso   1.000  H
  C43      1.0000 0.66468  0.04643  0.10652  Biso   1.000  C
  C44      1.0000 0.66465  0.04637  0.10652  Biso   1.000  C
  C45      1.0000 0.80254  0.02219  0.18890  Biso   1.000  C
  C46      1.0000 0.80257  0.02225  0.18890  Biso   1.000  C
  N27      1.0000 0.13838  0.24870  0.86958  Biso   1.000  N
  N28      1.0000 0.13827  0.24863  0.86958  Biso   1.000  N
  O14      1.0000 0.07309  0.14258  0.77282  Biso   1.000  O
  C47      1.0000 0.24433  0.29252  0.91910  Biso   1.000  C
  C48      1.0000 0.24422  0.29246  0.91910  Biso   1.000  C
  H44      1.0000 0.39663  0.28675  0.87489  Biso   1.000  H
  C49      1.0000 0.30777  0.24129  0.02351  Biso   1.000  C
  C50      1.0000 0.30780  0.24136  0.02351  Biso   1.000  C
  C51      1.0000 0.68630  0.11602  0.98408  Biso   1.000  C
  C52      1.0000 0.68627  0.11596  0.98408  Biso   1.000  C
  C53      1.0000 0.68619  0.11596  0.98408  Biso   1.000  C
  H45      1.0000 0.61439  0.07459  0.12563  Biso   1.000  H
  N29      1.0000 0.77956  0.08060  0.14919  Biso   1.000  N
  H46      1.0000 0.61431  0.07458  0.12557  Biso   1.000  H
  H47      1.0000 0.61431  0.07459  0.12563  Biso   1.000  H
  H48      1.0000 0.61442  0.07464  0.12557  Biso   1.000  H
  O15      1.0000 0.88644  0.03631  0.23260  Biso   1.000  O
  C54      1.0000 0.03435  0.26761  0.86998  Biso   1.000  C
  C55      1.0000 0.03427  0.26761  0.86998  Biso   1.000  C
  C56      1.0000 0.03424  0.26755  0.86998  Biso   1.000  C
  N30      1.0000 0.23596  0.27958  0.99909  Biso   1.000  N
  H49      1.0000 0.27565  0.35231  0.91231  Biso   1.000  H
  H50      1.0000 0.27562  0.35225  0.91231  Biso   1.000  H
  O16      1.0000 0.32910  0.23095  0.08952  Biso   1.000  O
  H51      1.0000 0.65322  0.09772  0.93182  Biso   1.000  H
  N31      1.0000 0.80611  0.16562  0.98380  Biso   1.000  N
  H52      1.0000 0.65314  0.09772  0.93182  Biso   1.000  H
  N32      1.0000 0.80607  0.16556  0.98380  Biso   1.000  N
  H53      1.0000 0.65311  0.09766  0.93182  Biso   1.000  H
  N33      1.0000 0.80599  0.16556  0.98380  Biso   1.000  N
  H54      1.0000 0.64780  0.15093  0.00662  Biso   1.000  H
  H55      1.0000 0.64777  0.15087  0.00662  Biso   1.000  H
  C57      1.0000 0.83987  0.16943  0.16682  Biso   1.000  C
  C58      1.0000 0.83984  0.16937  0.16682  Biso   1.000  C
  N34      1.0000 0.96658  0.23620  0.93268  Biso   1.000  N
  N35      1.0000 0.96647  0.23614  0.93268  Biso   1.000  N
  H56      1.0000 0.98736  0.24344  0.82229  Biso   1.000  H
  H57      1.0000 0.98725  0.24337  0.82229  Biso   1.000  H
  H58      1.0000 0.05515  0.32783  0.87312  Biso   1.000  H
  H59      1.0000 0.05504  0.32777  0.87312  Biso   1.000  H
  C59      1.0000 0.18991  0.32539  0.05169  Biso   1.000  C
  C60      1.0000 0.18983  0.32539  0.05169  Biso   1.000  C
  C61      1.0000 0.18994  0.32545  0.05169  Biso   1.000  C
  C62      1.0000 0.86080  0.17058  0.91808  Biso   1.000  C
  C63      1.0000 0.86604  0.23296  0.04159  Biso   1.000  C
  C64      1.0000 0.86615  0.23302  0.04159  Biso   1.000  C
  H60      1.0000 0.88763  0.17960  0.21457  Biso   1.000  H
  H61      1.0000 0.78409  0.19606  0.17401  Biso   1.000  H
  N36      1.0000 0.91151  0.20775  0.10880  Biso   1.000  N
  C65      1.0000 0.97693  0.28280  0.00422  Biso   1.000  C
  C66      1.0000 0.97685  0.28280  0.00422  Biso   1.000  C
  N37      1.0000 0.06914  0.28352  0.05899  Biso   1.000  N
  N38      1.0000 0.06902  0.28346  0.05899  Biso   1.000  N
  H62      1.0000 0.23209  0.33430  0.10150  Biso   1.000  H
  H63      1.0000 0.20209  0.37992  0.03457  Biso   1.000  H
  H64      1.0000 0.20206  0.37986  0.03457  Biso   1.000  H
  O17      1.0000 0.82540  0.12420  0.85840  Biso   1.000  O
  O18      1.0000 0.82529  0.12413  0.85840  Biso   1.000  O
  H65      1.0000 0.82059  0.26738  0.05460  Biso   1.000  H
  C67      1.0000 0.02921  0.24188  0.12049  Biso   1.000  C
  C68      1.0000 0.02913  0.24188  0.12049  Biso   1.000  C
  C69      1.0000 0.02924  0.24194  0.12049  Biso   1.000  C
  H66      1.0000 0.98071  0.33979  0.99789  Biso   1.000  H
  O19      1.0000 0.08781  0.23844  0.17641  Biso   1.000  O
  O20      1.0000 0.08778  0.23838  0.17641  Biso   1.000  O
  O21      1.0000 0.64859  0.71874  0.70219  Biso   1.000  O
  C70      1.0000 0.68050  0.66040  0.71337  Biso   1.000  C
  N39      1.0000 0.76883  0.64529  0.68291  Biso   1.000  N
  N40      1.0000 0.63261  0.60010  0.76078  Biso   1.000  N
  C71      1.0000 0.85392  0.70682  0.64428  Biso   1.000  C
  C72      1.0000 0.79608  0.58073  0.71800  Biso   1.000  C
  C73      1.0000 0.52835  0.59110  0.79701  Biso   1.000  C
  C74      1.0000 0.69236  0.54359  0.76541  Biso   1.000  C
  N41      1.0000 0.85564  0.67921  0.56538  Biso   1.000  N
  H67      1.0000 0.92960  0.71949  0.67047  Biso   1.000  H
  H68      1.0000 0.83793  0.75810  0.64719  Biso   1.000  H
  N42      1.0000 0.79108  0.51053  0.66551  Biso   1.000  N
  H69      1.0000 0.86917  0.60384  0.75029  Biso   1.000  H
  N43      1.0000 0.42407  0.52729  0.75548  Biso   1.000  N
  H70      1.0000 0.53700  0.57620  0.84819  Biso   1.000  H
  H71      1.0000 0.51844  0.64459  0.80118  Biso   1.000  H
  N44      1.0000 0.63316  0.45850  0.72501  Biso   1.000  N
  H72      1.0000 0.71805  0.54130  0.81841  Biso   1.000  H
  C75      1.0000 0.81971  0.71352  0.50611  Biso   1.000  C
  C76      1.0000 0.92867  0.63330  0.54091  Biso   1.000  C
  C77      1.0000 0.88370  0.50990  0.62049  Biso   1.000  C
  C78      1.0000 0.69579  0.43921  0.67281  Biso   1.000  C
  C79      1.0000 0.34633  0.54753  0.71372  Biso   1.000  C
  C80      1.0000 0.37869  0.44243  0.77419  Biso   1.000  C
  C81      1.0000 0.54926  0.39338  0.76170  Biso   1.000  C
  N45      1.0000 0.85579  0.68789  0.44078  Biso   1.000  N
  O22      1.0000 0.76573  0.76040  0.51181  Biso   1.000  O
  C82      1.0000 0.92701  0.63833  0.45459  Biso   1.000  C
  N46      1.0000 0.88273  0.54592  0.54832  Biso   1.000  N
  H73      1.0000 0.00711  0.65953  0.56590  Biso   1.000  H
  H74      1.0000 0.95651  0.54099  0.65027  Biso   1.000  H
  H75      1.0000 0.87910  0.45259  0.60983  Biso   1.000  H
  O23      1.0000 0.67590  0.37069  0.63778  Biso   1.000  O
  N47      1.0000 0.24982  0.47644  0.69278  Biso   1.000  N
  O24      1.0000 0.35928  0.61849  0.69592  Biso   1.000  O
  C83      1.0000 0.25652  0.40702  0.73209  Biso   1.000  C
  N48      1.0000 0.43035  0.38629  0.74219  Biso   1.000  N
  H76      1.0000 0.37600  0.44053  0.82942  Biso   1.000  H
  H77      1.0000 0.55641  0.34012  0.74681  Biso   1.000  H
  H78      1.0000 0.56678  0.40551  0.81658  Biso   1.000  H
  C84      1.0000 0.84223  0.71821  0.36770  Biso   1.000  C
  N49      1.0000 0.87498  0.55009  0.42298  Biso   1.000  N
  H79      1.0000 0.00485  0.66501  0.43901  Biso   1.000  H
  C85      1.0000 0.85540  0.49871  0.47952  Biso   1.000  C
  C86      1.0000 0.14460  0.47883  0.65598  Biso   1.000  C
  N50      1.0000 0.25409  0.33612  0.68211  Biso   1.000  N
  H80      1.0000 0.19747  0.39038  0.76797  Biso   1.000  H
  C87      1.0000 0.35870  0.32510  0.68907  Biso   1.000  C
  N51      1.0000 0.74590  0.66389  0.31789  Biso   1.000  N
  H81      1.0000 0.83435  0.77222  0.37683  Biso   1.000  H
  H82      1.0000 0.91168  0.72679  0.34220  Biso   1.000  H
  C88      1.0000 0.85542  0.52124  0.34402  Biso   1.000  C
  O25      1.0000 0.82039  0.42122  0.46879  Biso   1.000  O
  N52      1.0000 0.12500  0.44991  0.57702  Biso   1.000  N
  H83      1.0000 0.14715  0.53593  0.66231  Biso   1.000  H
  H84      1.0000 0.08014  0.44484  0.68148  Biso   1.000  H
  C89      1.0000 0.15775  0.28180  0.63230  Biso   1.000  C
  O26      1.0000 0.38035  0.26888  0.65478  Biso   1.000  O
  C90      1.0000 0.74355  0.59298  0.26791  Biso   1.000  C
  C91      1.0000 0.64135  0.67489  0.31087  Biso   1.000  C
  N53      1.0000 0.75020  0.52363  0.30722  Biso   1.000  N
  H85      1.0000 0.85295  0.46413  0.33769  Biso   1.000  H
  H86      1.0000 0.91996  0.55523  0.31852  Biso   1.000  H
  C92      1.0000 0.07300  0.36174  0.54541  Biso   1.000  C
  C93      1.0000 0.14459  0.50129  0.52048  Biso   1.000  C
  N54      1.0000 0.14419  0.31211  0.55922  Biso   1.000  N
  H87      1.0000 0.16564  0.22779  0.62318  Biso   1.000  H
  H88      1.0000 0.08831  0.27322  0.65781  Biso   1.000  H
  C94      1.0000 0.62133  0.55763  0.22581  Biso   1.000  C
  H89      1.0000 0.80250  0.60961  0.23197  Biso   1.000  H
  N55      1.0000 0.56963  0.61372  0.25782  Biso   1.000  N
  O27      1.0000 0.61964  0.73113  0.34522  Biso   1.000  O
  C95      1.0000 0.65369  0.45253  0.28629  Biso   1.000  C
  C96      1.0000 0.07131  0.36671  0.45909  Biso   1.000  C
  H90      1.0000 0.99521  0.33499  0.56099  Biso   1.000  H
  N56      1.0000 0.11725  0.45408  0.45168  Biso   1.000  N
  O28      1.0000 0.17959  0.57878  0.53121  Biso   1.000  O
  C97      1.0000 0.18027  0.28648  0.49390  Biso   1.000  C
  N57      1.0000 0.57592  0.47271  0.24452  Biso   1.000  N
  H91      1.0000 0.62402  0.55954  0.17058  Biso   1.000  H
  C98      1.0000 0.45072  0.60662  0.23830  Biso   1.000  C
  O29      1.0000 0.64070  0.38152  0.30409  Biso   1.000  O
  N58      1.0000 0.14443  0.32079  0.43462  Biso   1.000  N
  H92      1.0000 0.99291  0.34053  0.43411  Biso   1.000  H
  C99      1.0000 0.11629  0.49011  0.37951  Biso   1.000  C
  O30      1.0000 0.23425  0.23960  0.48819  Biso   1.000  O
  C100     1.0000 0.47164  0.40891  0.20299  Biso   1.000  C
  N59      1.0000 0.36682  0.54150  0.27499  Biso   1.000  N
  H93      1.0000 0.44368  0.65994  0.25320  Biso   1.000  H
  H94      1.0000 0.43321  0.59449  0.18342  Biso   1.000  H
  C101     1.0000 0.14607  0.29319  0.35572  Biso   1.000  C
  N60      1.0000 0.20894  0.48954  0.33449  Biso   1.000  N
  H95      1.0000 0.04355  0.45901  0.34973  Biso   1.000  H
  H96      1.0000 0.12089  0.54741  0.39018  Biso   1.000  H
  N61      1.0000 0.36738  0.39991  0.23922  Biso   1.000  N
  H97      1.0000 0.46306  0.42380  0.15181  Biso   1.000  H
  H98      1.0000 0.48155  0.35542  0.19883  Biso   1.000  H
  C102     1.0000 0.30762  0.45641  0.23460  Biso   1.000  C
  C103     1.0000 0.30419  0.56079  0.32719  Biso   1.000  C
  N62      1.0000 0.23124  0.35471  0.31709  Biso   1.000  N
  H99      1.0000 0.07038  0.28050  0.32947  Biso   1.000  H
  H100     1.0000 0.16205  0.24190  0.35281  Biso   1.000  H
  C104     1.0000 0.20393  0.41933  0.28201  Biso   1.000  C
  C105     1.0000 0.31949  0.33960  0.28663  Biso   1.000  C
  H101     1.0000 0.28193  0.45870  0.18160  Biso   1.000  H
  O31      1.0000 0.32409  0.62931  0.36222  Biso   1.000  O
  H102     1.0000 0.13085  0.39622  0.24972  Biso   1.000  H
  O32      1.0000 0.35143  0.28132  0.29781  Biso   1.000  O
  Ne1      1.0000 0.50000  0.50001  0.50000  Biso   1.000  Ne
  He1      1.0000 0.48003  0.68596  0.53463  Biso   1.000  He
  He2      1.0000 0.51863  0.32589  0.46700  Biso   1.000  He
  Ar1      1.0000 0.50000  0.50001  0.50000  Biso   1.000  Ar
  Ne2      1.0000 0.99126  0.00880  0.99183  Biso   1.000  Ne
  He3      1.0000 0.14463  0.06214  0.15693  Biso   1.000  He
  He4      1.0000 0.86277  0.94038  0.85114  Biso   1.000  He
  Ar2      1.0000 0.99968  0.99836  0.99659  Biso   1.000  Ar
