data_image0
_cell_length_a       12.598
_cell_length_b       15.562
_cell_length_c       31.223
_cell_angle_alpha    90
_cell_angle_beta     99.52
_cell_angle_gamma    90

_symmetry_space_group_name_H-M    "P 1"
_symmetry_int_tables_number       1

loop_
  _symmetry_equiv_pos_as_xyz
  'x, y, z'

loop_
  _atom_site_label
  _atom_site_occupancy
  _atom_site_fract_x
  _atom_site_fract_y
  _atom_site_fract_z
  _atom_site_thermal_displace_type
  _atom_site_B_iso_or_equiv
  _atom_site_type_symbol
  O1       1.0000 0.54170  0.49383  0.54788  Biso   1.000  O
  C1       1.0000 0.59140  0.42912  0.54113  Biso   1.000  C
  N1       1.0000 0.54770  0.35079  0.53077  Biso   1.000  N
  N2       1.0000 0.70101  0.42450  0.54285  Biso   1.000  N
  C2       1.0000 0.62779  0.28582  0.52457  Biso   1.000  C
  C3       1.0000 0.43243  0.34038  0.52184  Biso   1.000  C
  C4       1.0000 0.73699  0.33742  0.53613  Biso   1.000  C
  C5       1.0000 0.76908  0.49659  0.55711  Biso   1.000  C
  C6       1.0000 0.61100  0.24868  0.47858  Biso   1.000  C
  N3       1.0000 0.64059  0.21880  0.55772  Biso   1.000  N
  N4       1.0000 0.38796  0.30028  0.55646  Biso   1.000  N
  H1       1.0000 0.41378  0.30613  0.49570  Biso   1.000  H
  H2       1.0000 0.39944  0.39648  0.51609  Biso   1.000  H
  C7       1.0000 0.80303  0.33338  0.49914  Biso   1.000  C
  N5       1.0000 0.78899  0.29578  0.57565  Biso   1.000  N
  N6       1.0000 0.80201  0.50167  0.60374  Biso   1.000  N
  H3       1.0000 0.83300  0.49338  0.54360  Biso   1.000  H
  H4       1.0000 0.73125  0.54909  0.54710  Biso   1.000  H
  C8       1.0000 0.62714  0.31712  0.44611  Biso   1.000  C
  H5       1.0000 0.53876  0.22561  0.47141  Biso   1.000  H
  H6       1.0000 0.66148  0.20222  0.47722  Biso   1.000  H
  C9       1.0000 0.73739  0.22330  0.58513  Biso   1.000  C
  C10      1.0000 0.56744  0.14728  0.55938  Biso   1.000  C
  C11      1.0000 0.38076  0.20801  0.56058  Biso   1.000  C
  C12      1.0000 0.32194  0.34282  0.57974  Biso   1.000  C
  C13      1.0000 0.73769  0.35837  0.45592  Biso   1.000  C
  H7       1.0000 0.83029  0.27548  0.49709  Biso   1.000  H
  H8       1.0000 0.86438  0.37167  0.50570  Biso   1.000  H
  C14      1.0000 0.89740  0.31371  0.59825  Biso   1.000  C
  C15      1.0000 0.90107  0.46639  0.62657  Biso   1.000  C
  C16      1.0000 0.75617  0.55822  0.62881  Biso   1.000  C
  H9       1.0000 0.61787  0.29167  0.41730  Biso   1.000  H
  H10      1.0000 0.57265  0.36107  0.44601  Biso   1.000  H
  O2       1.0000 0.77055  0.16990  0.61296  Biso   1.000  O
  N7       1.0000 0.47819  0.16720  0.58156  Biso   1.000  N
  H11      1.0000 0.60749  0.09941  0.57399  Biso   1.000  H
  H12      1.0000 0.53928  0.12929  0.52999  Biso   1.000  H
  C17      1.0000 0.30218  0.19657  0.59312  Biso   1.000  C
  H13      1.0000 0.35318  0.18089  0.53259  Biso   1.000  H
  O3       1.0000 0.30681  0.42051  0.57981  Biso   1.000  O
  N8       1.0000 0.27399  0.28377  0.60277  Biso   1.000  N
  H14      1.0000 0.72882  0.42032  0.45520  Biso   1.000  H
  H15      1.0000 0.77787  0.34289  0.43312  Biso   1.000  H
  N9       1.0000 0.90188  0.37482  0.63320  Biso   1.000  N
  H16      1.0000 0.93997  0.33537  0.57740  Biso   1.000  H
  H17      1.0000 0.92980  0.26031  0.60991  Biso   1.000  H
  H18      1.0000 0.96275  0.48477  0.61342  Biso   1.000  H
  C18      1.0000 0.90755  0.50302  0.67317  Biso   1.000  C
  O4       1.0000 0.67770  0.60378  0.61650  Biso   1.000  O
  N10      1.0000 0.81207  0.55597  0.66993  Biso   1.000  N
  C19      1.0000 0.46701  0.13038  0.62014  Biso   1.000  C
  N11      1.0000 0.36707  0.15172  0.62884  Biso   1.000  N
  H19      1.0000 0.23872  0.16303  0.58062  Biso   1.000  H
  C20      1.0000 0.18045  0.30279  0.62264  Biso   1.000  C
  C21      1.0000 0.91226  0.35259  0.67597  Biso   1.000  C
  N12      1.0000 0.90579  0.42591  0.69967  Biso   1.000  N
  H20      1.0000 0.97332  0.53663  0.68201  Biso   1.000  H
  C22      1.0000 0.79238  0.61541  0.70360  Biso   1.000  C
  O5       1.0000 0.53268  0.08501  0.64284  Biso   1.000  O
  C23      1.0000 0.32262  0.11502  0.66408  Biso   1.000  C
  N13      1.0000 0.20192  0.30330  0.66941  Biso   1.000  N
  H21      1.0000 0.12530  0.26031  0.61300  Biso   1.000  H
  H22      1.0000 0.15241  0.35850  0.61251  Biso   1.000  H
  O6       1.0000 0.92832  0.28036  0.69055  Biso   1.000  O
  C24      1.0000 0.92868  0.42649  0.74660  Biso   1.000  C
  N14      1.0000 0.74476  0.57570  0.73751  Biso   1.000  N
  H23      1.0000 0.74507  0.66071  0.69042  Biso   1.000  H
  H24      1.0000 0.86010  0.64169  0.71640  Biso   1.000  H
  N15      1.0000 0.30559  0.17588  0.69711  Biso   1.000  N
  H25      1.0000 0.25430  0.08829  0.65252  Biso   1.000  H
  H26      1.0000 0.37062  0.07017  0.67739  Biso   1.000  H
  C25      1.0000 0.20770  0.22581  0.69532  Biso   1.000  C
  C26      1.0000 0.19773  0.37572  0.69383  Biso   1.000  C
  N16      1.0000 0.83923  0.44789  0.76754  Biso   1.000  N
  H27      1.0000 0.98612  0.46748  0.75582  Biso   1.000  H
  H28      1.0000 0.95496  0.37020  0.75650  Biso   1.000  H
  C27      1.0000 0.80890  0.53618  0.77449  Biso   1.000  C
  C28      1.0000 0.64016  0.58932  0.74335  Biso   1.000  C
  C29      1.0000 0.36241  0.17080  0.73851  Biso   1.000  C
  H29      1.0000 0.14361  0.19001  0.68710  Biso   1.000  H
  C30      1.0000 0.21540  0.26019  0.74238  Biso   1.000  C
  O7       1.0000 0.17966  0.44866  0.67957  Biso   1.000  O
  N17      1.0000 0.21212  0.35278  0.73650  Biso   1.000  N
  C31      1.0000 0.79719  0.39211  0.79453  Biso   1.000  C
  H30      1.0000 0.87179  0.57139  0.78580  Biso   1.000  H
  C32      1.0000 0.73123  0.52860  0.80752  Biso   1.000  C
  O8       1.0000 0.57018  0.62286  0.71692  Biso   1.000  O
  N18      1.0000 0.63014  0.55970  0.78359  Biso   1.000  N
  O9       1.0000 0.44026  0.12543  0.75007  Biso   1.000  O
  N19      1.0000 0.31538  0.22561  0.76436  Biso   1.000  N
  H31      1.0000 0.15482  0.24020  0.75569  Biso   1.000  H
  C33      1.0000 0.21110  0.41428  0.77099  Biso   1.000  C
  O10      1.0000 0.81625  0.31532  0.79804  Biso   1.000  O
  N20      1.0000 0.73144  0.43748  0.81694  Biso   1.000  N
  H32      1.0000 0.75530  0.56278  0.83370  Biso   1.000  H
  C34      1.0000 0.54122  0.58418  0.80466  Biso   1.000  C
  C35      1.0000 0.35294  0.23390  0.81048  Biso   1.000  C
  N21      1.0000 0.31674  0.43748  0.79382  Biso   1.000  N
  H33      1.0000 0.17487  0.46601  0.75891  Biso   1.000  H
  H34      1.0000 0.16942  0.39082  0.79171  Biso   1.000  H
  C36      1.0000 0.68112  0.40149  0.85084  Biso   1.000  C
  N22      1.0000 0.46671  0.51433  0.80898  Biso   1.000  N
  H35      1.0000 0.56939  0.60628  0.83331  Biso   1.000  H
  H36      1.0000 0.50193  0.63032  0.78820  Biso   1.000  H
  N23      1.0000 0.41652  0.30947  0.82230  Biso   1.000  N
  H37      1.0000 0.39539  0.18372  0.82051  Biso   1.000  H
  H38      1.0000 0.29100  0.23493  0.82532  Biso   1.000  H
  C37      1.0000 0.37498  0.39352  0.83172  Biso   1.000  C
  C38      1.0000 0.37070  0.50720  0.78177  Biso   1.000  C
  N24      1.0000 0.56580  0.38723  0.83925  Biso   1.000  N
  H39      1.0000 0.71551  0.34713  0.85961  Biso   1.000  H
  H40      1.0000 0.69386  0.43960  0.87572  Biso   1.000  H
  C39      1.0000 0.48123  0.44917  0.84305  Biso   1.000  C
  C40      1.0000 0.52658  0.30632  0.83051  Biso   1.000  C
  C41      1.0000 0.31238  0.38890  0.86955  Biso   1.000  C
  O11      1.0000 0.33599  0.55719  0.75248  Biso   1.000  O
  C42      1.0000 0.49164  0.48811  0.88819  Biso   1.000  C
  O12      1.0000 0.58025  0.24110  0.83133  Biso   1.000  O
  H41      1.0000 0.25393  0.34803  0.86270  Biso   1.000  H
  H42      1.0000 0.28142  0.44467  0.87361  Biso   1.000  H
  C43      1.0000 0.38456  0.36171  0.91144  Biso   1.000  C
  H43      1.0000 0.56055  0.51703  0.89520  Biso   1.000  H
  H44      1.0000 0.43545  0.53052  0.88861  Biso   1.000  H
  C44      1.0000 0.48297  0.41871  0.92261  Biso   1.000  C
  H45      1.0000 0.40765  0.30279  0.90852  Biso   1.000  H
  H46      1.0000 0.34331  0.36351  0.93512  Biso   1.000  H
  H47      1.0000 0.48087  0.44647  0.95022  Biso   1.000  H
  H48      1.0000 0.54691  0.38298  0.92602  Biso   1.000  H
  O13      1.0000 0.45848  0.50617  0.45215  Biso   1.000  O
  C45      1.0000 0.40877  0.57088  0.45887  Biso   1.000  C
  N25      1.0000 0.29915  0.57550  0.45715  Biso   1.000  N
  N26      1.0000 0.45246  0.64921  0.46923  Biso   1.000  N
  C46      1.0000 0.23108  0.50341  0.44289  Biso   1.000  C
  C47      1.0000 0.26319  0.66258  0.46390  Biso   1.000  C
  C48      1.0000 0.37237  0.71418  0.47543  Biso   1.000  C
  C49      1.0000 0.56765  0.65962  0.47816  Biso   1.000  C
  N27      1.0000 0.19815  0.49833  0.39626  Biso   1.000  N
  H49      1.0000 0.16716  0.50662  0.45640  Biso   1.000  H
  H50      1.0000 0.26883  0.45091  0.45290  Biso   1.000  H
  N28      1.0000 0.21119  0.70422  0.42438  Biso   1.000  N
  C50      1.0000 0.19705  0.66662  0.50086  Biso   1.000  C
  N29      1.0000 0.35959  0.78120  0.44231  Biso   1.000  N
  C51      1.0000 0.38917  0.75132  0.52145  Biso   1.000  C
  N30      1.0000 0.61213  0.69972  0.44357  Biso   1.000  N
  H51      1.0000 0.58638  0.69387  0.50430  Biso   1.000  H
  H52      1.0000 0.60064  0.60352  0.48391  Biso   1.000  H
  C52      1.0000 0.24391  0.44178  0.37119  Biso   1.000  C
  C53      1.0000 0.09902  0.53361  0.37343  Biso   1.000  C
  C54      1.0000 0.10277  0.68629  0.40175  Biso   1.000  C
  C55      1.0000 0.26277  0.77670  0.41487  Biso   1.000  C
  H53      1.0000 0.16987  0.72452  0.50291  Biso   1.000  H
  H54      1.0000 0.13578  0.62833  0.49430  Biso   1.000  H
  C56      1.0000 0.26248  0.64163  0.54408  Biso   1.000  C
  C57      1.0000 0.43264  0.85272  0.44062  Biso   1.000  C
  H55      1.0000 0.46140  0.77439  0.52859  Biso   1.000  H
  H56      1.0000 0.33869  0.79778  0.52281  Biso   1.000  H
  C58      1.0000 0.37295  0.68288  0.55392  Biso   1.000  C
  C59      1.0000 0.61932  0.79199  0.43942  Biso   1.000  C
  C60      1.0000 0.67814  0.65718  0.42026  Biso   1.000  C
  N31      1.0000 0.18802  0.44403  0.33011  Biso   1.000  N
  O14      1.0000 0.32248  0.39622  0.38353  Biso   1.000  O
  C61      1.0000 0.09253  0.49698  0.32683  Biso   1.000  C
  N32      1.0000 0.09828  0.62518  0.36680  Biso   1.000  N
  H57      1.0000 0.03735  0.51523  0.38661  Biso   1.000  H
  H58      1.0000 0.06019  0.66463  0.42260  Biso   1.000  H
  H59      1.0000 0.07036  0.73969  0.39009  Biso   1.000  H
  O15      1.0000 0.22953  0.83010  0.38704  Biso   1.000  O
  H60      1.0000 0.27126  0.57968  0.54480  Biso   1.000  H
  H61      1.0000 0.22230  0.65711  0.56691  Biso   1.000  H
  N33      1.0000 0.52197  0.83280  0.41844  Biso   1.000  N
  H62      1.0000 0.39267  0.90059  0.42601  Biso   1.000  H
  H63      1.0000 0.46088  0.87071  0.47001  Biso   1.000  H
  H64      1.0000 0.38229  0.70833  0.58270  Biso   1.000  H
  H65      1.0000 0.42743  0.63893  0.55399  Biso   1.000  H
  C62      1.0000 0.69798  0.80343  0.40688  Biso   1.000  C
  H66      1.0000 0.64699  0.81911  0.46741  Biso   1.000  H
  O16      1.0000 0.69336  0.57949  0.42019  Biso   1.000  O
  N34      1.0000 0.72617  0.71623  0.39723  Biso   1.000  N
  C63      1.0000 0.20771  0.38459  0.29643  Biso   1.000  C
  N35      1.0000 0.09437  0.57409  0.30033  Biso   1.000  N
  H67      1.0000 0.02684  0.46337  0.31799  Biso   1.000  H
  C64      1.0000 0.08783  0.64741  0.32407  Biso   1.000  C
  C65      1.0000 0.53315  0.86962  0.37986  Biso   1.000  C
  N36      1.0000 0.63301  0.84828  0.37116  Biso   1.000  N
  H68      1.0000 0.76146  0.83697  0.41941  Biso   1.000  H
  C66      1.0000 0.81964  0.69721  0.37739  Biso   1.000  C
  N37      1.0000 0.25532  0.42430  0.26249  Biso   1.000  N
  H69      1.0000 0.25503  0.33929  0.30962  Biso   1.000  H
  H70      1.0000 0.14006  0.35831  0.28360  Biso   1.000  H
  C67      1.0000 0.07141  0.57351  0.25340  Biso   1.000  C
  O17      1.0000 0.07184  0.71964  0.30945  Biso   1.000  O
  O18      1.0000 0.46749  0.91499  0.35716  Biso   1.000  O
  C68      1.0000 0.67754  0.88498  0.33592  Biso   1.000  C
  N38      1.0000 0.79824  0.69670  0.33059  Biso   1.000  N
  H71      1.0000 0.87486  0.73969  0.38700  Biso   1.000  H
  H72      1.0000 0.84775  0.64150  0.38749  Biso   1.000  H
  C69      1.0000 0.19126  0.46382  0.22551  Biso   1.000  C
  C70      1.0000 0.35993  0.41068  0.25665  Biso   1.000  C
  N39      1.0000 0.16093  0.55211  0.23246  Biso   1.000  N
  H73      1.0000 0.01406  0.53252  0.24421  Biso   1.000  H
  H74      1.0000 0.04512  0.62980  0.24350  Biso   1.000  H
  N40      1.0000 0.69457  0.82412  0.30289  Biso   1.000  N
  H75      1.0000 0.74588  0.91171  0.34751  Biso   1.000  H
  H76      1.0000 0.62954  0.92983  0.32261  Biso   1.000  H
  C71      1.0000 0.80245  0.62428  0.30621  Biso   1.000  C
  C72      1.0000 0.79246  0.77419  0.30468  Biso   1.000  C
  H77      1.0000 0.12837  0.42861  0.21420  Biso   1.000  H
  C73      1.0000 0.26893  0.47140  0.19248  Biso   1.000  C
  O19      1.0000 0.42991  0.37714  0.28312  Biso   1.000  O
  N41      1.0000 0.37002  0.44030  0.21641  Biso   1.000  N
  C74      1.0000 0.20289  0.60789  0.20547  Biso   1.000  C
  C75      1.0000 0.63775  0.82920  0.26149  Biso   1.000  C
  N42      1.0000 0.78804  0.64722  0.26350  Biso   1.000  N
  O20      1.0000 0.82042  0.55134  0.32043  Biso   1.000  O
  C76      1.0000 0.78476  0.73981  0.25762  Biso   1.000  C
  H78      1.0000 0.85655  0.80999  0.31290  Biso   1.000  H
  N43      1.0000 0.26872  0.56252  0.18306  Biso   1.000  N
  H79      1.0000 0.24478  0.43722  0.16630  Biso   1.000  H
  C77      1.0000 0.45894  0.41582  0.19534  Biso   1.000  C
  O21      1.0000 0.18393  0.68468  0.20199  Biso   1.000  O
  N44      1.0000 0.68471  0.77439  0.23567  Biso   1.000  N
  O22      1.0000 0.55982  0.87457  0.24993  Biso   1.000  O
  C78      1.0000 0.78906  0.58572  0.22901  Biso   1.000  C
  H80      1.0000 0.84534  0.75980  0.24431  Biso   1.000  H
  C79      1.0000 0.31904  0.59851  0.14916  Biso   1.000  C
  N45      1.0000 0.53345  0.48567  0.19102  Biso   1.000  N
  H81      1.0000 0.43069  0.39372  0.16669  Biso   1.000  H
  H82      1.0000 0.49823  0.36968  0.21180  Biso   1.000  H
  C80      1.0000 0.64722  0.76610  0.18952  Biso   1.000  C
  N46      1.0000 0.68342  0.56252  0.20618  Biso   1.000  N
  H83      1.0000 0.82521  0.53399  0.24109  Biso   1.000  H
  H84      1.0000 0.83074  0.60918  0.20829  Biso   1.000  H
  N47      1.0000 0.43428  0.61277  0.16075  Biso   1.000  N
  H85      1.0000 0.28465  0.65287  0.14039  Biso   1.000  H
  H86      1.0000 0.30632  0.56040  0.12431  Biso   1.000  H
  C81      1.0000 0.62940  0.49280  0.21826  Biso   1.000  C
  C82      1.0000 0.51894  0.55083  0.15698  Biso   1.000  C
  N48      1.0000 0.58364  0.69053  0.17770  Biso   1.000  N
  H87      1.0000 0.60469  0.81628  0.17949  Biso   1.000  H
  H88      1.0000 0.70910  0.76507  0.17472  Biso   1.000  H
  C83      1.0000 0.62510  0.60648  0.16829  Biso   1.000  C
  C84      1.0000 0.47351  0.69368  0.16949  Biso   1.000  C
  O23      1.0000 0.66410  0.44281  0.24756  Biso   1.000  O
  C85      1.0000 0.50852  0.51189  0.11181  Biso   1.000  C
  C86      1.0000 0.68771  0.61110  0.13048  Biso   1.000  C
  O24      1.0000 0.41992  0.75890  0.16871  Biso   1.000  O
  H89      1.0000 0.43961  0.48297  0.10480  Biso   1.000  H
  H90      1.0000 0.56471  0.46948  0.11139  Biso   1.000  H
  C87      1.0000 0.51721  0.58129  0.07742  Biso   1.000  C
  H91      1.0000 0.74623  0.65197  0.13730  Biso   1.000  H
  H92      1.0000 0.71874  0.55533  0.12639  Biso   1.000  H
  C88      1.0000 0.61561  0.63829  0.08859  Biso   1.000  C
  H93      1.0000 0.51931  0.55353  0.04982  Biso   1.000  H
  H94      1.0000 0.45318  0.61702  0.07401  Biso   1.000  H
  H95      1.0000 0.59252  0.69721  0.09151  Biso   1.000  H
  H96      1.0000 0.65678  0.63649  0.06488  Biso   1.000  H
  O25      1.0000 0.92000  0.74110  0.66869  Biso   1.000  O
  C89      1.0000 0.97358  0.80632  0.66947  Biso   1.000  C
  N49      1.0000 0.93437  0.88723  0.66077  Biso   1.000  N
  N50      1.0000 0.08372  0.80947  0.67772  Biso   1.000  N
  C90      1.0000 0.81913  0.90149  0.64917  Biso   1.000  C
  C91      1.0000 0.01902  0.94917  0.65697  Biso   1.000  C
  C92      1.0000 0.12519  0.89352  0.66830  Biso   1.000  C
  C93      1.0000 0.14731  0.73390  0.68954  Biso   1.000  C
  N51      1.0000 0.76881  0.93748  0.68308  Biso   1.000  N
  H97      1.0000 0.78465  0.84713  0.64041  Biso   1.000  H
  H98      1.0000 0.80639  0.93960  0.62430  Biso   1.000  H
  C94      1.0000 0.00861  0.98811  0.61183  Biso   1.000  C
  N52      1.0000 0.03346  0.01433  0.69103  Biso   1.000  N
  N53      1.0000 0.18351  0.93748  0.70620  Biso   1.000  N
  C95      1.0000 0.18779  0.88890  0.63047  Biso   1.000  C
  N54      1.0000 0.18479  0.72561  0.73565  Biso   1.000  N
  H99      1.0000 0.10478  0.68372  0.67951  Biso   1.000  H
  H100     1.0000 0.20917  0.73493  0.67470  Biso   1.000  H
  C96      1.0000 0.70298  0.89211  0.70549  Biso   1.000  C
  C97      1.0000 0.76902  0.02860  0.69250  Biso   1.000  C
  H101     1.0000 0.93969  0.01703  0.60481  Biso   1.000  H
  C98      1.0000 0.01728  0.91871  0.57740  Biso   1.000  C
  H102     1.0000 0.06480  0.03052  0.61141  Biso   1.000  H
  C99      1.0000 0.95903  0.08418  0.69535  Biso   1.000  C
  C100     1.0000 0.12947  0.00720  0.71825  Biso   1.000  C
  C101     1.0000 0.28907  0.91428  0.72903  Biso   1.000  C
  H103     1.0000 0.24632  0.84803  0.63732  Biso   1.000  H
  H104     1.0000 0.21875  0.94467  0.62641  Biso   1.000  H
  C102     1.0000 0.11569  0.86171  0.58858  Biso   1.000  C
  C103     1.0000 0.13782  0.67080  0.76147  Biso   1.000  C
  C104     1.0000 0.28477  0.76019  0.75764  Biso   1.000  C
  O26      1.0000 0.68400  0.81532  0.70198  Biso   1.000  O
  N55      1.0000 0.66102  0.94789  0.73247  Biso   1.000  N
  N56      1.0000 0.87011  0.05970  0.71643  Biso   1.000  N
  C105     1.0000 0.69127  0.03618  0.72552  Biso   1.000  C
  H105     1.0000 0.74487  0.06278  0.66632  Biso   1.000  H
  H106     1.0000 0.95326  0.88298  0.57399  Biso   1.000  H
  H107     1.0000 0.01938  0.94647  0.54980  Biso   1.000  H
  H108     1.0000 0.93078  0.10628  0.66671  Biso   1.000  H
  H109     1.0000 0.99832  0.13032  0.71182  Biso   1.000  H
  O27      1.0000 0.16418  0.05719  0.74754  Biso   1.000  O
  N57      1.0000 0.28813  0.85278  0.76352  Biso   1.000  N
  H110     1.0000 0.32530  0.96601  0.74111  Biso   1.000  H
  H111     1.0000 0.33083  0.89082  0.70831  Biso   1.000  H
  H112     1.0000 0.09260  0.80279  0.59150  Biso   1.000  H
  H113     1.0000 0.15686  0.86351  0.56490  Biso   1.000  H
  O28      1.0000 0.05990  0.62543  0.74991  Biso   1.000  O
  N58      1.0000 0.19457  0.67588  0.80291  Biso   1.000  N
  C106     1.0000 0.29254  0.72581  0.80470  Biso   1.000  C
  H114     1.0000 0.34542  0.74020  0.74429  Biso   1.000  H
  C107     1.0000 0.57149  0.92649  0.75342  Biso   1.000  C
  C108     1.0000 0.86001  0.08932  0.75667  Biso   1.000  C
  N59      1.0000 0.75541  0.07570  0.76251  Biso   1.000  N
  H115     1.0000 0.62837  0.07139  0.71422  Biso   1.000  H
  C109     1.0000 0.30252  0.87572  0.80619  Biso   1.000  C
  C110     1.0000 0.17763  0.61502  0.83594  Biso   1.000  C
  N60      1.0000 0.29833  0.80330  0.83061  Biso   1.000  N
  H116     1.0000 0.35664  0.69001  0.81291  Biso   1.000  H
  N61      1.0000 0.59438  0.92591  0.80034  Biso   1.000  N
  H117     1.0000 0.51413  0.96748  0.74420  Biso   1.000  H
  H118     1.0000 0.54521  0.87020  0.74351  Biso   1.000  H
  O29      1.0000 0.92999  0.12286  0.78310  Biso   1.000  O
  C111     1.0000 0.70779  0.11541  0.79641  Biso   1.000  C
  O30      1.0000 0.32051  0.94866  0.82045  Biso   1.000  O
  N62      1.0000 0.13310  0.65172  0.87117  Biso   1.000  N
  H119     1.0000 0.24587  0.58829  0.84750  Biso   1.000  H
  H120     1.0000 0.12963  0.57017  0.82262  Biso   1.000  H
  C112     1.0000 0.31972  0.80279  0.87737  Biso   1.000  C
  C113     1.0000 0.58790  0.85259  0.82405  Biso   1.000  C
  C114     1.0000 0.59261  0.00302  0.82681  Biso   1.000  C
  N63      1.0000 0.68809  0.05597  0.83009  Biso   1.000  N
  H121     1.0000 0.75510  0.16071  0.80960  Biso   1.000  H
  H122     1.0000 0.64007  0.14169  0.78362  Biso   1.000  H
  C115     1.0000 0.03324  0.63038  0.87988  Biso   1.000  C
  C116     1.0000 0.19799  0.69657  0.90689  Biso   1.000  C
  N64      1.0000 0.22618  0.78377  0.89725  Biso   1.000  N
  H123     1.0000 0.37495  0.76031  0.88702  Biso   1.000  H
  H124     1.0000 0.34784  0.85850  0.88751  Biso   1.000  H
  O31      1.0000 0.57193  0.78036  0.80947  Biso   1.000  O
  N65      1.0000 0.59829  0.87482  0.86682  Biso   1.000  N
  C117     1.0000 0.59909  0.96639  0.87341  Biso   1.000  C
  H125     1.0000 0.52693  0.03663  0.81801  Biso   1.000  H
  C118     1.0000 0.74399  0.05822  0.87117  Biso   1.000  C
  O32      1.0000 0.96748  0.58501  0.85714  Biso   1.000  O
  N66      1.0000 0.02206  0.66720  0.91846  Biso   1.000  N
  H126     1.0000 0.26153  0.66303  0.91940  Biso   1.000  H
  C119     1.0000 0.11941  0.70801  0.93943  Biso   1.000  C
  C120     1.0000 0.17823  0.84282  0.92027  Biso   1.000  C
  C121     1.0000 0.60285  0.81371  0.90176  Biso   1.000  C
  H127     1.0000 0.53742  0.98477  0.88660  Biso   1.000  H
  N67      1.0000 0.69822  0.00167  0.89624  Biso   1.000  N
  O33      1.0000 0.82255  0.10378  0.88351  Biso   1.000  O
  C122     1.0000 0.93271  0.64728  0.94060  Biso   1.000  C
  N68      1.0000 0.11221  0.80028  0.94356  Biso   1.000  N
  H128     1.0000 0.14706  0.68089  0.96740  Biso   1.000  H
  O34      1.0000 0.19344  0.92051  0.92021  Biso   1.000  O
  N69      1.0000 0.71118  0.79578  0.92437  Biso   1.000  N
  H129     1.0000 0.56020  0.83537  0.92261  Biso   1.000  H
  H130     1.0000 0.57045  0.76031  0.89011  Biso   1.000  H
  C123     1.0000 0.73116  0.99659  0.94291  Biso   1.000  C
  N70      1.0000 0.85958  0.71880  0.94229  Biso   1.000  N
  H131     1.0000 0.89276  0.59941  0.92602  Biso   1.000  H
  H132     1.0000 0.96095  0.62929  0.96999  Biso   1.000  H
  C124     1.0000 0.06774  0.84038  0.97818  Biso   1.000  C
  C125     1.0000 0.76286  0.72330  0.91488  Biso   1.000  C
  C126     1.0000 0.76326  0.83742  0.96389  Biso   1.000  C
  N71      1.0000 0.79924  0.92450  0.95717  Biso   1.000  N
  H133     1.0000 0.66725  0.99338  0.95642  Biso   1.000  H
  H134     1.0000 0.76892  0.04909  0.95291  Biso   1.000  H
  C127     1.0000 0.87246  0.78582  0.97545  Biso   1.000  C
  N72      1.0000 0.95255  0.85079  0.96925  Biso   1.000  N
  H135     1.0000 0.10072  0.89648  0.98389  Biso   1.000  H
  H136     1.0000 0.08631  0.80613  0.00432  Biso   1.000  H
  O35      1.0000 0.72962  0.66990  0.88705  Biso   1.000  O
  C128     1.0000 0.69698  0.83338  0.00088  Biso   1.000  C
  C129     1.0000 0.90885  0.92912  0.95889  Biso   1.000  C
  C130     1.0000 0.88909  0.74868  0.02143  Biso   1.000  C
  H137     1.0000 0.63587  0.87167  0.99432  Biso   1.000  H
  H138     1.0000 0.66980  0.77548  0.00292  Biso   1.000  H
  C131     1.0000 0.76240  0.85837  0.04410  Biso   1.000  C
  O36      1.0000 0.95855  0.99383  0.95213  Biso   1.000  O
  H139     1.0000 0.96125  0.72561  0.02861  Biso   1.000  H
  H140     1.0000 0.83861  0.70222  0.02280  Biso   1.000  H
  C132     1.0000 0.87287  0.81712  0.05391  Biso   1.000  C
  H141     1.0000 0.77119  0.92032  0.04482  Biso   1.000  H
  H142     1.0000 0.72214  0.84289  0.06690  Biso   1.000  H
  H143     1.0000 0.88222  0.79167  0.08271  Biso   1.000  H
  H144     1.0000 0.92736  0.86107  0.05401  Biso   1.000  H
  O37      1.0000 0.08016  0.25890  0.33131  Biso   1.000  O
  C133     1.0000 0.02658  0.19368  0.33053  Biso   1.000  C
  N73      1.0000 0.06572  0.11277  0.33927  Biso   1.000  N
  N74      1.0000 0.91644  0.19053  0.32228  Biso   1.000  N
  C134     1.0000 0.18105  0.09851  0.35086  Biso   1.000  C
  C135     1.0000 0.98114  0.05083  0.34303  Biso   1.000  C
  C136     1.0000 0.87497  0.10648  0.33170  Biso   1.000  C
  C137     1.0000 0.85285  0.26610  0.31046  Biso   1.000  C
  N75      1.0000 0.23135  0.06252  0.31692  Biso   1.000  N
  H145     1.0000 0.21543  0.15287  0.35959  Biso   1.000  H
  H146     1.0000 0.19377  0.06040  0.37570  Biso   1.000  H
  N76      1.0000 0.96664  0.98567  0.30900  Biso   1.000  N
  C138     1.0000 0.99155  0.01189  0.38817  Biso   1.000  C
  N77      1.0000 0.81665  0.06252  0.29380  Biso   1.000  N
  C139     1.0000 0.81237  0.11110  0.36953  Biso   1.000  C
  N78      1.0000 0.81537  0.27439  0.26435  Biso   1.000  N
  H147     1.0000 0.89530  0.31628  0.32049  Biso   1.000  H
  H148     1.0000 0.79091  0.26507  0.32530  Biso   1.000  H
  C140     1.0000 0.29710  0.10789  0.29452  Biso   1.000  C
  C141     1.0000 0.23116  0.97140  0.30754  Biso   1.000  C
  C142     1.0000 0.04113  0.91582  0.30465  Biso   1.000  C
  C143     1.0000 0.87061  0.99280  0.28175  Biso   1.000  C
  H149     1.0000 0.93536  0.96948  0.38859  Biso   1.000  H
  C144     1.0000 0.98288  0.08129  0.42260  Biso   1.000  C
  H150     1.0000 0.06047  0.98297  0.39519  Biso   1.000  H
  C145     1.0000 0.71102  0.08572  0.27100  Biso   1.000  C
  H151     1.0000 0.75385  0.15197  0.36271  Biso   1.000  H
  H152     1.0000 0.78133  0.05533  0.37359  Biso   1.000  H
  C146     1.0000 0.88447  0.13829  0.41142  Biso   1.000  C
  C147     1.0000 0.86234  0.32920  0.23853  Biso   1.000  C
  C148     1.0000 0.71532  0.23981  0.24236  Biso   1.000  C
  O38      1.0000 0.31616  0.18468  0.29802  Biso   1.000  O
  N79      1.0000 0.33914  0.05211  0.26753  Biso   1.000  N
  C149     1.0000 0.30881  0.96382  0.27448  Biso   1.000  C
  N80      1.0000 0.13006  0.94030  0.28360  Biso   1.000  N
  H153     1.0000 0.25522  0.93722  0.33371  Biso   1.000  H
  H154     1.0000 0.06931  0.89372  0.33329  Biso   1.000  H
  H155     1.0000 0.00185  0.86968  0.28821  Biso   1.000  H
  O39      1.0000 0.83590  0.94281  0.25246  Biso   1.000  O
  H156     1.0000 0.04683  0.11702  0.42601  Biso   1.000  H
  H157     1.0000 0.98078  0.05353  0.45020  Biso   1.000  H
  N81      1.0000 0.71203  0.14722  0.23648  Biso   1.000  N
  H158     1.0000 0.67486  0.03399  0.25889  Biso   1.000  H
  H159     1.0000 0.66934  0.10918  0.29169  Biso   1.000  H
  H160     1.0000 0.90757  0.19721  0.40850  Biso   1.000  H
  H161     1.0000 0.84322  0.13649  0.43510  Biso   1.000  H
  O40      1.0000 0.94027  0.37457  0.25009  Biso   1.000  O
  N82      1.0000 0.80551  0.32412  0.19709  Biso   1.000  N
  C150     1.0000 0.70762  0.27419  0.19530  Biso   1.000  C
  H162     1.0000 0.65475  0.25980  0.25571  Biso   1.000  H
  C151     1.0000 0.42860  0.07351  0.24661  Biso   1.000  C
  N83      1.0000 0.24475  0.92430  0.23749  Biso   1.000  N
  H163     1.0000 0.37172  0.92861  0.28581  Biso   1.000  H
  C152     1.0000 0.14016  0.91068  0.24337  Biso   1.000  C
  C153     1.0000 0.69764  0.12428  0.19381  Biso   1.000  C
  C154     1.0000 0.82253  0.38498  0.16406  Biso   1.000  C
  N84      1.0000 0.70184  0.19670  0.16939  Biso   1.000  N
  H164     1.0000 0.64353  0.30999  0.18709  Biso   1.000  H
  N85      1.0000 0.40570  0.07409  0.19966  Biso   1.000  N
  H165     1.0000 0.48603  0.03252  0.25580  Biso   1.000  H
  H166     1.0000 0.45495  0.12980  0.25649  Biso   1.000  H
  C155     1.0000 0.29229  0.88459  0.20359  Biso   1.000  C
  O41      1.0000 0.07010  0.87714  0.21690  Biso   1.000  O
  O42      1.0000 0.67965  0.05134  0.17955  Biso   1.000  O
  N86      1.0000 0.86698  0.34828  0.12883  Biso   1.000  N
  H167     1.0000 0.75421  0.41171  0.15250  Biso   1.000  H
  H168     1.0000 0.87055  0.42983  0.17741  Biso   1.000  H
  C156     1.0000 0.68044  0.19721  0.12263  Biso   1.000  C
  C157     1.0000 0.41226  0.14741  0.17595  Biso   1.000  C
  C158     1.0000 0.40755  0.99698  0.17319  Biso   1.000  C
  N87      1.0000 0.31199  0.94403  0.16991  Biso   1.000  N
  H169     1.0000 0.24506  0.83929  0.19040  Biso   1.000  H
  H170     1.0000 0.36002  0.85831  0.21641  Biso   1.000  H
  C159     1.0000 0.96694  0.36962  0.12016  Biso   1.000  C
  C160     1.0000 0.80210  0.30343  0.09311  Biso   1.000  C
  N88      1.0000 0.77390  0.21623  0.10275  Biso   1.000  N
  H171     1.0000 0.62523  0.23969  0.11301  Biso   1.000  H
  H172     1.0000 0.65232  0.14150  0.11249  Biso   1.000  H
  O43      1.0000 0.42824  0.21964  0.19053  Biso   1.000  O
  N89      1.0000 0.40180  0.12518  0.13321  Biso   1.000  N
  C161     1.0000 0.40099  0.03361  0.12659  Biso   1.000  C
  H173     1.0000 0.47323  0.96337  0.18199  Biso   1.000  H
  C162     1.0000 0.25609  0.94178  0.12883  Biso   1.000  C
  N90      1.0000 0.97810  0.33280  0.08154  Biso   1.000  N
  O44      1.0000 0.03260  0.41499  0.14286  Biso   1.000  O
  C163     1.0000 0.88068  0.29199  0.06057  Biso   1.000  C
  H174     1.0000 0.73863  0.33697  0.08060  Biso   1.000  H
  C164     1.0000 0.82193  0.15718  0.07973  Biso   1.000  C
  C165     1.0000 0.39732  0.18629  0.09827  Biso   1.000  C
  H175     1.0000 0.46274  0.01523  0.11340  Biso   1.000  H
  N91      1.0000 0.30194  0.99833  0.10376  Biso   1.000  N
  O45      1.0000 0.17761  0.89622  0.11649  Biso   1.000  O
  C166     1.0000 0.06745  0.35272  0.05940  Biso   1.000  C
  N92      1.0000 0.88788  0.19972  0.05644  Biso   1.000  N
  H176     1.0000 0.85310  0.31911  0.03260  Biso   1.000  H
  O46      1.0000 0.80673  0.07949  0.07982  Biso   1.000  O
  N93      1.0000 0.28890  0.20422  0.07563  Biso   1.000  N
  H177     1.0000 0.43988  0.16463  0.07739  Biso   1.000  H
  H178     1.0000 0.42971  0.23969  0.10990  Biso   1.000  H
  C167     1.0000 0.26901  0.00341  0.05712  Biso   1.000  C
  N94      1.0000 0.14050  0.28120  0.05771  Biso   1.000  N
  H179     1.0000 0.10741  0.40059  0.07401  Biso   1.000  H
  H180     1.0000 0.03921  0.37071  0.03001  Biso   1.000  H
  C168     1.0000 0.93244  0.15962  0.02186  Biso   1.000  C
  C169     1.0000 0.23730  0.27670  0.08512  Biso   1.000  C
  C170     1.0000 0.23690  0.16258  0.03611  Biso   1.000  C
  N95      1.0000 0.20092  0.07550  0.04283  Biso   1.000  N
  H181     1.0000 0.33293  0.00662  0.04361  Biso   1.000  H
  H182     1.0000 0.23124  0.95091  0.04709  Biso   1.000  H
  C171     1.0000 0.12770  0.21418  0.02455  Biso   1.000  C
  N96      1.0000 0.04761  0.14921  0.03075  Biso   1.000  N
  H183     1.0000 0.91386  0.19387  0.99571  Biso   1.000  H
  H184     1.0000 0.89944  0.10352  0.01611  Biso   1.000  H
  O47      1.0000 0.27054  0.33010  0.11295  Biso   1.000  O
  C172     1.0000 0.30319  0.16662  0.99916  Biso   1.000  C
  C173     1.0000 0.09132  0.07088  0.04115  Biso   1.000  C
  C174     1.0000 0.11107  0.25132  0.97857  Biso   1.000  C
  H185     1.0000 0.36431  0.12833  0.00572  Biso   1.000  H
  H186     1.0000 0.33038  0.22452  0.99711  Biso   1.000  H
  C175     1.0000 0.23776  0.14163  0.95590  Biso   1.000  C
  O48      1.0000 0.04161  0.00617  0.04787  Biso   1.000  O
  H187     1.0000 0.03884  0.27439  0.97139  Biso   1.000  H
  H188     1.0000 0.16156  0.29778  0.97720  Biso   1.000  H
  C176     1.0000 0.12729  0.18288  0.94609  Biso   1.000  C
  H189     1.0000 0.22897  0.07968  0.95518  Biso   1.000  H
  H190     1.0000 0.27794  0.15711  0.93310  Biso   1.000  H
  H191     1.0000 0.11794  0.20833  0.91729  Biso   1.000  H
  H192     1.0000 0.07272  0.13893  0.94599  Biso   1.000  H
  Ne1      1.0000 0.05642  0.13482  0.18430  Biso   1.000  Ne
  He1      1.0000 0.19624  0.29420  0.21233  Biso   1.000  He
  He2      1.0000 0.96515  0.96294  0.13435  Biso   1.000  He
  Ar1      1.0000 0.06312  0.14730  0.18735  Biso   1.000  Ar
  Ne2      1.0000 0.44366  0.63482  0.31570  Biso   1.000  Ne
  He3      1.0000 0.60290  0.48664  0.33650  Biso   1.000  He
  He4      1.0000 0.33242  0.80383  0.27613  Biso   1.000  He
  Ar2      1.0000 0.43667  0.64624  0.31380  Biso   1.000  Ar
  Ne3      1.0000 0.55648  0.36518  0.68431  Biso   1.000  Ne
  He5      1.0000 0.69601  0.20620  0.71224  Biso   1.000  He
  He6      1.0000 0.39130  0.52224  0.66145  Biso   1.000  He
  Ar3      1.0000 0.56492  0.35293  0.68678  Biso   1.000  Ar
  Ne4      1.0000 0.94372  0.86518  0.81571  Biso   1.000  Ne
  He7      1.0000 0.10041  0.00952  0.83562  Biso   1.000  He
  He8      1.0000 0.80079  0.70145  0.78667  Biso   1.000  He
  Ar4      1.0000 0.93528  0.85293  0.81323  Biso   1.000  Ar
