data_image0
_cell_length_a       12.697
_cell_length_b       16.573
_cell_length_c       14.45
_cell_angle_alpha    90
_cell_angle_beta     99.09
_cell_angle_gamma    90

_symmetry_space_group_name_H-M    "P 1"
_symmetry_int_tables_number       1

loop_
  _symmetry_equiv_pos_as_xyz
  'x, y, z'

loop_
  _atom_site_label
  _atom_site_occupancy
  _atom_site_fract_x
  _atom_site_fract_y
  _atom_site_fract_z
  _atom_site_thermal_displace_type
  _atom_site_B_iso_or_equiv
  _atom_site_type_symbol
  C1       1.0000 0.40565  0.53919  0.57497  Biso   1.000  C
  C2       1.0000 0.31395  0.58891  0.52703  Biso   1.000  C
  C3       1.0000 0.51193  0.58360  0.58871  Biso   1.000  C
  H1       1.0000 0.41180  0.49098  0.53818  Biso   1.000  H
  H2       1.0000 0.39012  0.52230  0.63573  Biso   1.000  H
  C4       1.0000 0.34009  0.62831  0.43810  Biso   1.000  C
  H3       1.0000 0.29693  0.63042  0.56951  Biso   1.000  H
  H4       1.0000 0.25174  0.55470  0.51134  Biso   1.000  H
  C5       1.0000 0.50100  0.67121  0.55682  Biso   1.000  C
  H5       1.0000 0.56031  0.55602  0.55381  Biso   1.000  H
  H6       1.0000 0.54274  0.58197  0.65452  Biso   1.000  H
  N1       1.0000 0.36083  0.56888  0.36857  Biso   1.000  N
  N2       1.0000 0.25958  0.68829  0.40207  Biso   1.000  N
  C6       1.0000 0.44513  0.67827  0.45590  Biso   1.000  C
  H7       1.0000 0.46080  0.70078  0.59740  Biso   1.000  H
  H8       1.0000 0.57145  0.69529  0.56229  Biso   1.000  H
  C7       1.0000 0.29153  0.50130  0.33577  Biso   1.000  C
  C8       1.0000 0.46133  0.57443  0.34888  Biso   1.000  C
  C9       1.0000 0.14645  0.67562  0.37782  Biso   1.000  C
  C10      1.0000 0.30193  0.76401  0.40193  Biso   1.000  C
  N3       1.0000 0.50801  0.64267  0.39037  Biso   1.000  N
  N4       1.0000 0.40798  0.75913  0.43242  Biso   1.000  N
  N5       1.0000 0.20997  0.52139  0.25539  Biso   1.000  N
  H9       1.0000 0.25639  0.48277  0.38694  Biso   1.000  H
  H10      1.0000 0.33483  0.45731  0.31860  Biso   1.000  H
  O1       1.0000 0.50370  0.52622  0.30157  Biso   1.000  O
  N6       1.0000 0.11594  0.64309  0.28433  Biso   1.000  N
  H11      1.0000 0.10990  0.72660  0.38217  Biso   1.000  H
  H12      1.0000 0.12325  0.63881  0.42268  Biso   1.000  H
  O2       1.0000 0.25129  0.82610  0.38357  Biso   1.000  O
  C11      1.0000 0.61665  0.66500  0.38182  Biso   1.000  C
  C12      1.0000 0.47552  0.82990  0.43613  Biso   1.000  C
  C13      1.0000 0.21142  0.49062  0.16750  Biso   1.000  C
  C14      1.0000 0.11089  0.55759  0.26632  Biso   1.000  C
  C15      1.0000 0.05637  0.68708  0.21411  Biso   1.000  C
  N7       1.0000 0.62403  0.72691  0.31510  Biso   1.000  N
  H13      1.0000 0.65293  0.68280  0.44251  Biso   1.000  H
  H14      1.0000 0.65350  0.61757  0.36423  Biso   1.000  H
  N8       1.0000 0.51874  0.84239  0.35021  Biso   1.000  N
  H15      1.0000 0.43443  0.87703  0.44812  Biso   1.000  H
  H16      1.0000 0.53394  0.82441  0.48772  Biso   1.000  H
  O3       1.0000 0.27933  0.44790  0.14311  Biso   1.000  O
  N9       1.0000 0.11887  0.51548  0.11228  Biso   1.000  N
  C16      1.0000 0.04617  0.55240  0.16568  Biso   1.000  C
  H17      1.0000 0.07561  0.52851  0.31188  Biso   1.000  H
  N10      1.0000 0.01978  0.63537  0.14199  Biso   1.000  N
  O4       1.0000 0.03730  0.75943  0.21621  Biso   1.000  O
  C17      1.0000 0.62191  0.81313  0.33704  Biso   1.000  C
  C18      1.0000 0.65334  0.71411  0.22840  Biso   1.000  C
  C19      1.0000 0.47511  0.89519  0.28272  Biso   1.000  C
  C20      1.0000 0.08517  0.48470  0.01857  Biso   1.000  C
  H18      1.0000 0.98179  0.51958  0.16463  Biso   1.000  H
  C21      1.0000 0.93564  0.65842  0.06868  Biso   1.000  C
  H19      1.0000 0.67774  0.82797  0.38911  Biso   1.000  H
  C22      1.0000 0.63888  0.85398  0.24347  Biso   1.000  C
  O5       1.0000 0.67958  0.64961  0.19869  Biso   1.000  O
  N11      1.0000 0.65199  0.78562  0.18278  Biso   1.000  N
  N12      1.0000 0.54173  0.89972  0.21698  Biso   1.000  N
  O6       1.0000 0.39553  0.93417  0.28300  Biso   1.000  O
  H20      1.0000 0.13589  0.44440  0.00498  Biso   1.000  H
  H21      1.0000 0.01652  0.45852  0.01612  Biso   1.000  H
  N13      1.0000 0.07646  0.54661  0.94737  Biso   1.000  N
  N14      1.0000 0.96830  0.66192  0.97701  Biso   1.000  N
  H22      1.0000 0.90883  0.71092  0.08340  Biso   1.000  H
  H23      1.0000 0.87753  0.61998  0.06658  Biso   1.000  H
  H24      1.0000 0.70178  0.88898  0.25209  Biso   1.000  H
  C23      1.0000 0.68679  0.79358  0.09293  Biso   1.000  C
  C24      1.0000 0.52744  0.96277  0.14493  Biso   1.000  C
  C25      1.0000 0.98240  0.59452  0.91961  Biso   1.000  C
  C26      1.0000 0.14309  0.54691  0.88079  Biso   1.000  C
  C27      1.0000 0.97460  0.73529  0.93363  Biso   1.000  C
  N15      1.0000 0.60333  0.81621  0.01731  Biso   1.000  N
  H25      1.0000 0.71728  0.74271  0.07723  Biso   1.000  H
  H26      1.0000 0.74291  0.83389  0.09798  Biso   1.000  H
  N16      1.0000 0.49416  0.92922  0.05228  Biso   1.000  N
  H27      1.0000 0.59405  0.99167  0.14613  Biso   1.000  H
  H28      1.0000 0.47417  0.00103  0.15881  Biso   1.000  H
  H29      1.0000 0.91849  0.56049  0.91022  Biso   1.000  H
  C28      1.0000 0.00041  0.63338  0.82661  Biso   1.000  C
  N17      1.0000 0.10249  0.60230  0.81266  Biso   1.000  N
  O7       1.0000 0.22241  0.50552  0.88212  Biso   1.000  O
  N18      1.0000 0.99780  0.71882  0.84539  Biso   1.000  N
  O8       1.0000 0.96575  0.80088  0.96678  Biso   1.000  O
  C29      1.0000 0.57225  0.76462  0.94428  Biso   1.000  C
  C30      1.0000 0.57019  0.89760  0.99678  Biso   1.000  C
  C31      1.0000 0.39932  0.94509  0.00182  Biso   1.000  C
  H30      1.0000 0.94421  0.61787  0.77510  Biso   1.000  H
  C32      1.0000 0.15035  0.61691  0.73018  Biso   1.000  C
  C33      1.0000 0.00178  0.78079  0.77643  Biso   1.000  C
  N19      1.0000 0.50717  0.80903  0.87497  Biso   1.000  N
  O9       1.0000 0.59505  0.69450  0.93882  Biso   1.000  O
  C34      1.0000 0.50440  0.89278  0.89768  Biso   1.000  C
  H31      1.0000 0.63150  0.93369  0.99832  Biso   1.000  H
  N20      1.0000 0.40169  0.92289  0.91029  Biso   1.000  N
  O10      1.0000 0.32112  0.97623  0.02993  Biso   1.000  O
  N21      1.0000 0.21239  0.68919  0.73270  Biso   1.000  N
  H32      1.0000 0.19576  0.57141  0.72120  Biso   1.000  H
  H33      1.0000 0.09427  0.61932  0.67628  Biso   1.000  H
  H34      1.0000 0.96276  0.82743  0.79332  Biso   1.000  H
  H35      1.0000 0.96570  0.76130  0.71637  Biso   1.000  H
  N22      1.0000 0.10863  0.80607  0.76578  Biso   1.000  N
  C35      1.0000 0.47417  0.77831  0.78211  Biso   1.000  C
  H36      1.0000 0.53600  0.92590  0.85310  Biso   1.000  H
  C36      1.0000 0.32098  0.94642  0.83201  Biso   1.000  C
  C37      1.0000 0.32066  0.68660  0.76059  Biso   1.000  C
  C38      1.0000 0.17469  0.77023  0.70347  Biso   1.000  C
  C39      1.0000 0.15646  0.86973  0.81582  Biso   1.000  C
  N23      1.0000 0.35963  0.76371  0.75828  Biso   1.000  N
  H37      1.0000 0.51166  0.72817  0.77552  Biso   1.000  H
  H38      1.0000 0.49513  0.81651  0.73746  Biso   1.000  H
  N24      1.0000 0.25437  0.88107  0.79227  Biso   1.000  N
  H39      1.0000 0.27625  0.98787  0.85303  Biso   1.000  H
  H40      1.0000 0.35618  0.96977  0.78337  Biso   1.000  H
  O11      1.0000 0.37295  0.62662  0.78113  Biso   1.000  O
  C40      1.0000 0.27947  0.82242  0.72247  Biso   1.000  C
  C41      1.0000 0.12258  0.77331  0.60199  Biso   1.000  C
  O12      1.0000 0.11566  0.91160  0.87013  Biso   1.000  O
  C42      1.0000 0.30410  0.86490  0.63472  Biso   1.000  C
  H41      1.0000 0.05403  0.74627  0.59526  Biso   1.000  H
  H42      1.0000 0.16676  0.74471  0.56387  Biso   1.000  H
  C43      1.0000 0.10654  0.85941  0.56709  Biso   1.000  C
  C44      1.0000 0.20588  0.91233  0.58608  Biso   1.000  C
  H43      1.0000 0.32478  0.82520  0.59162  Biso   1.000  H
  H44      1.0000 0.36345  0.90171  0.65161  Biso   1.000  H
  H45      1.0000 0.05083  0.88403  0.59631  Biso   1.000  H
  H46      1.0000 0.08196  0.85820  0.50002  Biso   1.000  H
  H47      1.0000 0.19227  0.95722  0.62561  Biso   1.000  H
  H48      1.0000 0.22109  0.93411  0.52742  Biso   1.000  H
  C45      1.0000 0.52456  0.32987  0.56390  Biso   1.000  C
  N25      1.0000 0.59201  0.25910  0.56761  Biso   1.000  N
  N26      1.0000 0.48133  0.34242  0.64982  Biso   1.000  N
  H49      1.0000 0.56564  0.37700  0.55191  Biso   1.000  H
  H50      1.0000 0.46614  0.32438  0.51232  Biso   1.000  H
  C46      1.0000 0.55495  0.17830  0.54413  Biso   1.000  C
  C47      1.0000 0.69815  0.26398  0.59810  Biso   1.000  C
  C48      1.0000 0.37816  0.31310  0.66300  Biso   1.000  C
  C49      1.0000 0.52489  0.39522  0.71731  Biso   1.000  C
  C50      1.0000 0.49900  0.17118  0.44321  Biso   1.000  C
  N27      1.0000 0.49206  0.14270  0.60959  Biso   1.000  N
  C51      1.0000 0.65991  0.12828  0.56194  Biso   1.000  C
  N28      1.0000 0.74040  0.18832  0.59789  Biso   1.000  N
  O13      1.0000 0.74869  0.32607  0.61639  Biso   1.000  O
  N29      1.0000 0.37604  0.22688  0.68493  Biso   1.000  N
  H51      1.0000 0.32233  0.32800  0.61092  Biso   1.000  H
  C52      1.0000 0.36111  0.35401  0.75649  Biso   1.000  C
  N30      1.0000 0.45833  0.39969  0.78298  Biso   1.000  N
  O14      1.0000 0.60455  0.43420  0.71703  Biso   1.000  O
  H52      1.0000 0.53920  0.20081  0.40263  Biso   1.000  H
  H53      1.0000 0.42862  0.19532  0.43768  Biso   1.000  H
  C53      1.0000 0.48815  0.08363  0.41132  Biso   1.000  C
  C54      1.0000 0.53874  0.07440  0.65108  Biso   1.000  C
  C55      1.0000 0.38342  0.16503  0.61821  Biso   1.000  C
  N31      1.0000 0.63924  0.06891  0.63139  Biso   1.000  N
  C56      1.0000 0.68613  0.08888  0.47300  Biso   1.000  C
  C57      1.0000 0.85362  0.17559  0.62221  Biso   1.000  C
  C58      1.0000 0.34674  0.21408  0.77163  Biso   1.000  C
  N32      1.0000 0.34800  0.28558  0.81718  Biso   1.000  N
  H54      1.0000 0.29820  0.38901  0.74787  Biso   1.000  H
  C59      1.0000 0.47264  0.46280  0.85510  Biso   1.000  C
  C60      1.0000 0.59441  0.03922  0.42499  Biso   1.000  C
  H55      1.0000 0.43969  0.05599  0.44623  Biso   1.000  H
  H56      1.0000 0.45733  0.08200  0.34552  Biso   1.000  H
  O15      1.0000 0.49629  0.02619  0.69839  Biso   1.000  O
  H57      1.0000 0.34715  0.18283  0.55752  Biso   1.000  H
  H58      1.0000 0.34650  0.11760  0.63580  Biso   1.000  H
  C61      1.0000 0.70854  0.00133  0.66419  Biso   1.000  C
  H59      1.0000 0.70315  0.13039  0.43053  Biso   1.000  H
  H60      1.0000 0.74834  0.05473  0.48870  Biso   1.000  H
  N33      1.0000 0.88414  0.14312  0.71570  Biso   1.000  N
  H61      1.0000 0.89016  0.22657  0.61779  Biso   1.000  H
  H62      1.0000 0.87681  0.13878  0.57728  Biso   1.000  H
  O16      1.0000 0.32041  0.14958  0.80127  Biso   1.000  O
  C62      1.0000 0.31321  0.29361  0.90710  Biso   1.000  C
  N34      1.0000 0.50582  0.42919  0.94768  Biso   1.000  N
  H63      1.0000 0.52583  0.50100  0.84122  Biso   1.000  H
  H64      1.0000 0.40603  0.49170  0.85391  Biso   1.000  H
  H65      1.0000 0.60988  0.02233  0.36430  Biso   1.000  H
  H66      1.0000 0.58819  0.99101  0.46179  Biso   1.000  H
  N35      1.0000 0.79001  0.02142  0.74458  Biso   1.000  N
  H67      1.0000 0.74361  0.98280  0.61310  Biso   1.000  H
  H68      1.0000 0.66525  0.95728  0.68143  Biso   1.000  H
  C63      1.0000 0.88911  0.05762  0.73371  Biso   1.000  C
  C64      1.0000 0.94362  0.18711  0.78593  Biso   1.000  C
  N36      1.0000 0.39674  0.31618  0.98272  Biso   1.000  N
  H69      1.0000 0.28272  0.24268  0.92280  Biso   1.000  H
  H70      1.0000 0.25716  0.33392  0.90199  Biso   1.000  H
  C65      1.0000 0.60076  0.44512  0.99821  Biso   1.000  C
  C66      1.0000 0.42988  0.39757  0.00319  Biso   1.000  C
  C67      1.0000 0.78866  0.99059  0.83253  Biso   1.000  C
  H71      1.0000 0.92446  0.02848  0.68809  Biso   1.000  H
  C68      1.0000 0.95381  0.05237  0.83428  Biso   1.000  C
  N37      1.0000 0.98020  0.13540  0.85797  Biso   1.000  N
  O17      1.0000 0.96270  0.25940  0.78382  Biso   1.000  O
  C69      1.0000 0.42774  0.26459  0.05568  Biso   1.000  C
  O18      1.0000 0.67895  0.47620  0.97011  Biso   1.000  O
  N38      1.0000 0.59839  0.42292  0.08974  Biso   1.000  N
  C70      1.0000 0.49566  0.39281  0.10229  Biso   1.000  C
  H72      1.0000 0.36858  0.43372  0.00172  Biso   1.000  H
  N39      1.0000 0.88111  0.01551  0.88769  Biso   1.000  N
  O19      1.0000 0.72074  0.94793  0.85692  Biso   1.000  O
  H73      1.0000 0.01820  0.01961  0.83541  Biso   1.000  H
  C71      1.0000 0.06443  0.15839  0.93128  Biso   1.000  C
  O20      1.0000 0.40495  0.19447  0.06122  Biso   1.000  O
  N40      1.0000 0.49289  0.30900  0.12499  Biso   1.000  N
  C72      1.0000 0.67910  0.44639  0.16803  Biso   1.000  C
  H74      1.0000 0.46407  0.42587  0.14693  Biso   1.000  H
  C73      1.0000 0.91482  0.98467  0.98139  Biso   1.000  C
  H75      1.0000 0.09125  0.21089  0.91663  Biso   1.000  H
  H76      1.0000 0.12253  0.12001  0.93338  Biso   1.000  H
  N41      1.0000 0.03178  0.16189  0.02302  Biso   1.000  N
  C74      1.0000 0.52590  0.27828  0.21793  Biso   1.000  C
  N42      1.0000 0.74569  0.38110  0.20769  Biso   1.000  N
  H77      1.0000 0.72375  0.48790  0.14700  Biso   1.000  H
  H78      1.0000 0.64388  0.46980  0.21659  Biso   1.000  H
  H79      1.0000 0.86410  0.94443  0.99499  Biso   1.000  H
  H80      1.0000 0.98355  0.95849  0.98391  Biso   1.000  H
  N43      1.0000 0.92352  0.04658  0.05260  Biso   1.000  N
  C75      1.0000 0.01768  0.09449  0.08042  Biso   1.000  C
  C76      1.0000 0.02548  0.23532  0.06640  Biso   1.000  C
  N44      1.0000 0.64036  0.26368  0.24168  Biso   1.000  N
  H81      1.0000 0.48834  0.22820  0.22451  Biso   1.000  H
  H82      1.0000 0.50486  0.31648  0.26250  Biso   1.000  H
  C77      1.0000 0.84354  0.36970  0.18421  Biso   1.000  C
  C78      1.0000 0.72059  0.32239  0.27750  Biso   1.000  C
  C79      1.0000 0.85697  0.04688  0.11918  Biso   1.000  C
  C80      1.0000 0.99967  0.13341  0.17342  Biso   1.000  C
  H83      1.0000 0.08159  0.06052  0.08981  Biso   1.000  H
  O21      1.0000 0.03423  0.30091  0.03318  Biso   1.000  O
  N45      1.0000 0.00228  0.21879  0.15464  Biso   1.000  N
  C81      1.0000 0.67941  0.18663  0.23944  Biso   1.000  C
  N46      1.0000 0.89135  0.30610  0.23418  Biso   1.000  N
  O22      1.0000 0.88434  0.41157  0.12990  Biso   1.000  O
  C82      1.0000 0.82537  0.27020  0.29649  Biso   1.000  C
  C83      1.0000 0.69598  0.36487  0.36531  Biso   1.000  C
  N47      1.0000 0.89757  0.10227  0.18730  Biso   1.000  N
  O23      1.0000 0.77767  0.00549  0.11791  Biso   1.000  O
  H84      1.0000 0.05587  0.11790  0.22493  Biso   1.000  H
  C84      1.0000 0.99830  0.28082  0.22360  Biso   1.000  C
  N48      1.0000 0.78768  0.18922  0.26733  Biso   1.000  N
  O24      1.0000 0.62705  0.12659  0.21891  Biso   1.000  O
  C85      1.0000 0.87750  0.27328  0.39804  Biso   1.000  C
  C86      1.0000 0.79418  0.41230  0.41388  Biso   1.000  C
  H85      1.0000 0.67530  0.32523  0.40841  Biso   1.000  H
  H86      1.0000 0.63655  0.40168  0.34842  Biso   1.000  H
  C87      1.0000 0.84963  0.11688  0.26979  Biso   1.000  C
  H87      1.0000 0.03724  0.32740  0.20671  Biso   1.000  H
  H88      1.0000 0.03436  0.26133  0.28359  Biso   1.000  H
  H89      1.0000 0.94595  0.24630  0.40470  Biso   1.000  H
  H90      1.0000 0.83330  0.24468  0.43610  Biso   1.000  H
  C88      1.0000 0.89345  0.35938  0.43287  Biso   1.000  C
  H91      1.0000 0.80780  0.45719  0.37442  Biso   1.000  H
  H92      1.0000 0.77899  0.43408  0.47261  Biso   1.000  H
  H93      1.0000 0.80424  0.07138  0.27883  Biso   1.000  H
  H94      1.0000 0.90579  0.11929  0.32368  Biso   1.000  H
  H95      1.0000 0.94916  0.38400  0.40372  Biso   1.000  H
  H96      1.0000 0.91812  0.35817  0.50001  Biso   1.000  H
