data_image0
_cell_length_a       18.207
_cell_length_b       21.478
_cell_length_c       11.911
_cell_angle_alpha    101.56
_cell_angle_beta     102.57
_cell_angle_gamma    105.16

_symmetry_space_group_name_H-M    "P 1"
_symmetry_int_tables_number       1

loop_
  _symmetry_equiv_pos_as_xyz
  'x, y, z'

loop_
  _atom_site_label
  _atom_site_occupancy
  _atom_site_fract_x
  _atom_site_fract_y
  _atom_site_fract_z
  _atom_site_thermal_displace_type
  _atom_site_B_iso_or_equiv
  _atom_site_type_symbol
  O1       1.0000 0.96860  0.65898  0.73600  Biso   1.000  O
  H1       1.0000 0.97499  0.56601  0.68297  Biso   1.000  H
  O2       1.0000 0.07944  0.63432  0.69880  Biso   1.000  O
  H2       1.0000 0.03201  0.61303  0.82998  Biso   1.000  H
  O3       1.0000 0.07937  0.63428  0.69880  Biso   1.000  O
  H3       1.0000 0.03199  0.61298  0.82998  Biso   1.000  H
  C1       1.0000 0.98641  0.71041  0.84187  Biso   1.000  C
  C2       1.0000 0.01251  0.61489  0.73913  Biso   1.000  C
  C3       1.0000 0.14991  0.67179  0.79126  Biso   1.000  C
  C4       1.0000 0.93592  0.70401  0.91000  Biso   1.000  C
  C5       1.0000 0.05310  0.76820  0.87334  Biso   1.000  C
  C6       1.0000 0.05311  0.76821  0.87343  Biso   1.000  C
  C7       1.0000 0.20014  0.63903  0.82810  Biso   1.000  C
  C8       1.0000 0.20007  0.63898  0.82810  Biso   1.000  C
  C9       1.0000 0.16940  0.74078  0.83418  Biso   1.000  C
  O4       1.0000 0.87413  0.64401  0.88264  Biso   1.000  O
  O5       1.0000 0.87409  0.64402  0.88273  Biso   1.000  O
  C10      1.0000 0.95001  0.75301  0.01042  Biso   1.000  C
  C11      1.0000 0.95001  0.75298  0.01051  Biso   1.000  C
  C12      1.0000 0.06431  0.81621  0.97421  Biso   1.000  C
  C13      1.0000 0.11001  0.77301  0.79394  Biso   1.000  C
  O6       1.0000 0.18162  0.56869  0.78679  Biso   1.000  O
  C14      1.0000 0.27451  0.67211  0.91617  Biso   1.000  C
  C15      1.0000 0.24070  0.77401  0.92234  Biso   1.000  C
  C16      1.0000 0.80292  0.64480  0.80592  Biso   1.000  C
  C17      1.0000 0.80289  0.64481  0.80601  Biso   1.000  C
  O7       1.0000 0.89282  0.74812  0.07453  Biso   1.000  O
  C18      1.0000 0.01533  0.81142  0.04753  Biso   1.000  C
  C19      1.0000 0.01527  0.81139  0.04762  Biso   1.000  C
  H4       1.0000 0.11499  0.86100  0.99898  Biso   1.000  H
  H5       1.0000 0.07698  0.74599  0.70193  Biso   1.000  H
  C20      1.0000 0.14579  0.84501  0.78589  Biso   1.000  C
  H6       1.0000 0.07700  0.74601  0.70202  Biso   1.000  H
  C21      1.0000 0.19648  0.54799  0.66867  Biso   1.000  C
  O8       1.0000 0.32712  0.63912  0.94899  Biso   1.000  O
  C22      1.0000 0.29401  0.74091  0.96383  Biso   1.000  C
  H7       1.0000 0.25598  0.82700  0.95999  Biso   1.000  H
  C23      1.0000 0.74161  0.57609  0.76139  Biso   1.000  C
  H8       1.0000 0.77902  0.67902  0.85394  Biso   1.000  H
  H9       1.0000 0.81601  0.66100  0.73001  Biso   1.000  H
  H10      1.0000 0.77902  0.67899  0.85403  Biso   1.000  H
  C24      1.0000 0.91049  0.72652  0.17915  Biso   1.000  C
  C25      1.0000 0.91050  0.72649  0.17924  Biso   1.000  C
  C26      1.0000 0.03121  0.86372  0.15841  Biso   1.000  C
  H11      1.0000 0.17703  0.87703  0.87495  Biso   1.000  H
  H12      1.0000 0.17698  0.87699  0.87504  Biso   1.000  H
  H13      1.0000 0.18697  0.84500  0.73296  Biso   1.000  H
  C27      1.0000 0.08248  0.87158  0.72920  Biso   1.000  C
  C28      1.0000 0.17142  0.47729  0.63004  Biso   1.000  C
  C29      1.0000 0.17138  0.47731  0.63013  Biso   1.000  C
  H14      1.0000 0.25901  0.56799  0.67797  Biso   1.000  H
  H15      1.0000 0.16400  0.56699  0.60500  Biso   1.000  H
  C30      1.0000 0.32382  0.61612  0.05012  Biso   1.000  C
  C31      1.0000 0.37010  0.77650  0.06738  Biso   1.000  C
  C32      1.0000 0.77341  0.53080  0.69245  Biso   1.000  C
  C33      1.0000 0.77342  0.53081  0.69254  Biso   1.000  C
  H16      1.0000 0.73101  0.55901  0.83695  Biso   1.000  H
  H17      1.0000 0.68700  0.57802  0.70694  Biso   1.000  H
  H18      1.0000 0.73102  0.55902  0.83704  Biso   1.000  H
  H19      1.0000 0.68700  0.57799  0.70703  Biso   1.000  H
  H20      1.0000 0.94702  0.69403  0.16699  Biso   1.000  H
  O9       1.0000 0.95108  0.77931  0.28350  Biso   1.000  O
  H21      1.0000 0.85500  0.69800  0.19104  Biso   1.000  H
  H22      1.0000 0.94700  0.69398  0.16699  Biso   1.000  H
  H23      1.0000 0.97501  0.86601  0.16994  Biso   1.000  H
  H24      1.0000 0.97503  0.86603  0.17003  Biso   1.000  H
  C34      1.0000 0.07571  0.84409  0.26240  Biso   1.000  C
  C35      1.0000 0.07229  0.93633  0.15537  Biso   1.000  C
  C36      1.0000 0.07227  0.93628  0.15537  Biso   1.000  C
  H25      1.0000 0.03702  0.86403  0.77498  Biso   1.000  H
  H26      1.0000 0.05702  0.84299  0.63701  Biso   1.000  H
  H27      1.0000 0.03701  0.86398  0.77498  Biso   1.000  H
  C37      1.0000 0.10873  0.94401  0.73153  Biso   1.000  C
  C38      1.0000 0.08049  0.44442  0.61037  Biso   1.000  C
  C39      1.0000 0.08047  0.44437  0.61037  Biso   1.000  C
  H28      1.0000 0.18400  0.46302  0.54598  Biso   1.000  H
  H29      1.0000 0.20400  0.45902  0.69594  Biso   1.000  H
  H30      1.0000 0.20400  0.45899  0.69603  Biso   1.000  H
  O10      1.0000 0.38004  0.66362  0.15805  Biso   1.000  O
  H31      1.0000 0.33802  0.57002  0.03796  Biso   1.000  H
  O11      1.0000 0.37998  0.66358  0.15814  Biso   1.000  O
  H32      1.0000 0.33801  0.56997  0.03796  Biso   1.000  H
  H33      1.0000 0.26397  0.60701  0.05996  Biso   1.000  H
  C40      1.0000 0.35210  0.77012  0.18353  Biso   1.000  C
  H34      1.0000 0.41403  0.75203  0.05593  Biso   1.000  H
  C41      1.0000 0.35210  0.77009  0.18362  Biso   1.000  C
  H35      1.0000 0.41398  0.75199  0.05602  Biso   1.000  H
  C42      1.0000 0.41092  0.84930  0.06711  Biso   1.000  C
  C43      1.0000 0.70750  0.45670  0.62154  Biso   1.000  C
  H36      1.0000 0.82404  0.52501  0.75200  Biso   1.000  H
  H37      1.0000 0.79199  0.55302  0.62592  Biso   1.000  H
  H38      1.0000 0.82398  0.52501  0.75200  Biso   1.000  H
  H39      1.0000 0.79199  0.55299  0.62601  Biso   1.000  H
  C44      1.0000 0.03511  0.79982  0.31694  Biso   1.000  C
  C45      1.0000 0.03511  0.79978  0.31703  Biso   1.000  C
  C46      1.0000 0.15761  0.86531  0.30326  Biso   1.000  C
  H40      1.0000 0.13100  0.94001  0.14696  Biso   1.000  H
  H41      1.0000 0.03802  0.94502  0.07793  Biso   1.000  H
  H42      1.0000 0.03802  0.94498  0.07802  Biso   1.000  H
  C47      1.0000 0.08013  0.99070  0.26312  Biso   1.000  C
  C48      1.0000 0.10621  0.96308  0.62583  Biso   1.000  C
  C49      1.0000 0.13399  0.99269  0.84088  Biso   1.000  C
  C50      1.0000 0.10623  0.96310  0.62592  Biso   1.000  C
  C51      1.0000 0.06411  0.37002  0.57782  Biso   1.000  C
  H43      1.0000 0.04599  0.45800  0.53999  Biso   1.000  H
  H44      1.0000 0.06600  0.46001  0.69200  Biso   1.000  H
  C52      1.0000 0.35273  0.71132  0.22163  Biso   1.000  C
  C53      1.0000 0.35267  0.71128  0.22171  Biso   1.000  C
  C54      1.0000 0.32812  0.81703  0.25140  Biso   1.000  C
  C55      1.0000 0.32810  0.81699  0.25140  Biso   1.000  C
  H45      1.0000 0.41799  0.84998  0.97993  Biso   1.000  H
  H46      1.0000 0.41801  0.84999  0.98002  Biso   1.000  H
  C56      1.0000 0.49320  0.87728  0.16163  Biso   1.000  C
  H47      1.0000 0.37501  0.88000  0.08902  Biso   1.000  H
  C57      1.0000 0.49322  0.87729  0.16172  Biso   1.000  C
  C58      1.0000 0.70740  0.41019  0.68387  Biso   1.000  C
  H48      1.0000 0.72201  0.43900  0.53999  Biso   1.000  H
  H49      1.0000 0.64903  0.46203  0.59901  Biso   1.000  H
  C59      1.0000 0.07294  0.77763  0.40198  Biso   1.000  C
  C60      1.0000 0.07287  0.77758  0.40198  Biso   1.000  C
  C61      1.0000 0.19814  0.84282  0.39170  Biso   1.000  C
  H50      1.0000 0.19100  0.90103  0.26598  Biso   1.000  H
  C62      1.0000 0.19809  0.84282  0.39170  Biso   1.000  C
  H51      1.0000 0.19099  0.90098  0.26598  Biso   1.000  H
  H52      1.0000 0.11100  0.98103  0.34198  Biso   1.000  H
  H53      1.0000 0.02203  0.99101  0.26794  Biso   1.000  H
  H54      1.0000 0.11098  0.98098  0.34198  Biso   1.000  H
  H55      1.0000 0.02199  0.99102  0.26803  Biso   1.000  H
  C63      1.0000 0.12640  0.05874  0.25632  Biso   1.000  C
  C64      1.0000 0.12638  0.05880  0.25641  Biso   1.000  C
  H56      1.0000 0.08699  0.92500  0.54098  Biso   1.000  H
  C65      1.0000 0.12887  0.03090  0.62959  Biso   1.000  C
  H57      1.0000 0.13598  0.97801  0.92297  Biso   1.000  H
  C66      1.0000 0.15673  0.06053  0.84473  Biso   1.000  C
  C67      1.0000 0.98281  0.33298  0.57818  Biso   1.000  C
  H58      1.0000 0.07001  0.35400  0.48894  Biso   1.000  H
  H59      1.0000 0.10702  0.35800  0.64104  Biso   1.000  H
  H60      1.0000 0.07003  0.35401  0.48903  Biso   1.000  H
  C68      1.0000 0.33681  0.70601  0.32928  Biso   1.000  C
  C69      1.0000 0.31202  0.81151  0.35897  Biso   1.000  C
  H61      1.0000 0.32201  0.85901  0.21903  Biso   1.000  H
  H62      1.0000 0.48498  0.87400  0.24791  Biso   1.000  H
  H63      1.0000 0.52899  0.84702  0.13793  Biso   1.000  H
  C70      1.0000 0.53691  0.94821  0.17218  Biso   1.000  C
  H64      1.0000 0.48499  0.87401  0.24800  Biso   1.000  H
  H65      1.0000 0.52899  0.84699  0.13802  Biso   1.000  H
  O12      1.0000 0.65241  0.34537  0.62476  Biso   1.000  O
  H66      1.0000 0.76601  0.40499  0.70595  Biso   1.000  H
  H67      1.0000 0.69300  0.42898  0.76497  Biso   1.000  H
  H68      1.0000 0.76603  0.40500  0.70604  Biso   1.000  H
  O13      1.0000 0.02831  0.73722  0.46001  Biso   1.000  O
  C71      1.0000 0.15318  0.79798  0.44159  Biso   1.000  C
  C72      1.0000 0.28772  0.86280  0.43363  Biso   1.000  C
  C73      1.0000 0.28768  0.86281  0.43372  Biso   1.000  C
  C74      1.0000 0.20399  0.08834  0.33089  Biso   1.000  C
  C75      1.0000 0.09531  0.09045  0.17522  Biso   1.000  C
  C76      1.0000 0.20400  0.08839  0.33089  Biso   1.000  C
  C77      1.0000 0.09529  0.09051  0.17531  Biso   1.000  C
  C78      1.0000 0.15422  0.07961  0.73913  Biso   1.000  C
  H69      1.0000 0.12703  0.04600  0.54804  Biso   1.000  H
  H70      1.0000 0.17599  0.09798  0.92896  Biso   1.000  H
  O14      1.0000 0.97170  0.26278  0.53999  Biso   1.000  O
  H71      1.0000 0.93902  0.34601  0.51898  Biso   1.000  H
  H72      1.0000 0.97698  0.34601  0.66795  Biso   1.000  H
  H73      1.0000 0.97700  0.34602  0.66804  Biso   1.000  H
  O15      1.0000 0.34759  0.65462  0.37516  Biso   1.000  O
  C79      1.0000 0.31681  0.75438  0.39223  Biso   1.000  C
  C80      1.0000 0.31677  0.75440  0.39232  Biso   1.000  C
  C81      1.0000 0.60899  0.96322  0.14446  Biso   1.000  C
  C82      1.0000 0.50788  0.99971  0.21358  Biso   1.000  C
  C83      1.0000 0.66319  0.29398  0.67063  Biso   1.000  C
  C84      1.0000 0.66321  0.29400  0.67072  Biso   1.000  C
  C85      1.0000 0.01720  0.66702  0.42183  Biso   1.000  C
  O16      1.0000 0.19349  0.77661  0.53450  Biso   1.000  O
  H74      1.0000 0.30703  0.86300  0.52600  Biso   1.000  H
  C86      1.0000 0.32929  0.93659  0.43265  Biso   1.000  C
  C87      1.0000 0.32931  0.93661  0.43274  Biso   1.000  C
  C88      1.0000 0.25050  0.14964  0.32419  Biso   1.000  C
  H75      1.0000 0.22801  0.06394  0.39393  Biso   1.000  H
  C89      1.0000 0.25052  0.14969  0.32419  Biso   1.000  C
  H76      1.0000 0.22799  0.06401  0.39402  Biso   1.000  H
  C90      1.0000 0.14182  0.15186  0.16860  Biso   1.000  C
  H77      1.0000 0.03503  0.06799  0.11799  Biso   1.000  H
  C91      1.0000 0.14178  0.15191  0.16860  Biso   1.000  C
  H78      1.0000 0.03497  0.06799  0.11799  Biso   1.000  H
  H79      1.0000 0.17200  0.13200  0.74199  Biso   1.000  H
  C92      1.0000 0.92713  0.22241  0.59794  Biso   1.000  C
  C93      1.0000 0.92709  0.22242  0.59803  Biso   1.000  C
  C94      1.0000 0.29261  0.58981  0.31614  Biso   1.000  C
  O17      1.0000 0.30315  0.74853  0.50490  Biso   1.000  O
  O18      1.0000 0.30308  0.74849  0.50490  Biso   1.000  O
  H80      1.0000 0.63200  0.92298  0.11200  Biso   1.000  H
  C95      1.0000 0.65211  0.02967  0.15823  Biso   1.000  C
  C96      1.0000 0.65212  0.02969  0.15832  Biso   1.000  C
  H81      1.0000 0.45201  0.98803  0.23495  Biso   1.000  H
  H82      1.0000 0.45202  0.98799  0.23504  Biso   1.000  H
  C97      1.0000 0.55098  0.06615  0.22726  Biso   1.000  C
  C98      1.0000 0.55100  0.06620  0.22726  Biso   1.000  C
  C99      1.0000 0.68319  0.24561  0.60768  Biso   1.000  C
  C100     1.0000 0.64729  0.28872  0.77829  Biso   1.000  C
  C101     1.0000 0.93591  0.62998  0.42219  Biso   1.000  C
  H83      1.0000 0.02303  0.65403  0.33197  Biso   1.000  H
  H84      1.0000 0.06099  0.65400  0.48103  Biso   1.000  H
  H85      1.0000 0.02302  0.65398  0.33197  Biso   1.000  H
  C102     1.0000 0.22390  0.72550  0.50472  Biso   1.000  C
  H86      1.0000 0.39203  0.94500  0.45197  Biso   1.000  H
  H87      1.0000 0.30702  0.94201  0.34395  Biso   1.000  H
  C103     1.0000 0.31674  0.98973  0.52100  Biso   1.000  C
  H88      1.0000 0.39198  0.94500  0.45197  Biso   1.000  H
  H89      1.0000 0.30704  0.94203  0.34404  Biso   1.000  H
  C104     1.0000 0.31667  0.98968  0.52100  Biso   1.000  C
  C105     1.0000 0.21939  0.18134  0.24300  Biso   1.000  C
  H90      1.0000 0.31101  0.17296  0.38195  Biso   1.000  H
  C106     1.0000 0.21941  0.18139  0.24300  Biso   1.000  C
  H91      1.0000 0.31099  0.17302  0.38204  Biso   1.000  H
  H92      1.0000 0.11800  0.17599  0.10601  Biso   1.000  H
  C107     1.0000 0.84682  0.20201  0.55832  Biso   1.000  C
  C108     1.0000 0.84682  0.20198  0.55841  Biso   1.000  C
  C109     1.0000 0.96490  0.20022  0.68297  Biso   1.000  C
  C110     1.0000 0.29252  0.54331  0.37846  Biso   1.000  C
  H93      1.0000 0.23399  0.59500  0.29396  Biso   1.000  H
  H94      1.0000 0.30702  0.57102  0.23504  Biso   1.000  H
  H95      1.0000 0.70797  0.04093  0.13695  Biso   1.000  H
  C111     1.0000 0.62310  0.08118  0.19972  Biso   1.000  C
  H96      1.0000 0.70800  0.04100  0.13704  Biso   1.000  H
  H97      1.0000 0.52901  0.10599  0.25900  Biso   1.000  H
  O19      1.0000 0.69692  0.25150  0.49502  Biso   1.000  O
  C112     1.0000 0.68800  0.18852  0.64095  Biso   1.000  C
  O20      1.0000 0.69688  0.25152  0.49511  Biso   1.000  O
  C113     1.0000 0.68800  0.18849  0.64104  Biso   1.000  C
  C114     1.0000 0.64792  0.22992  0.81638  Biso   1.000  C
  O21      1.0000 0.62003  0.33642  0.84187  Biso   1.000  O
  O22      1.0000 0.61996  0.33637  0.84187  Biso   1.000  O
  C115     1.0000 0.91953  0.55562  0.38955  Biso   1.000  C
  C116     1.0000 0.91947  0.55558  0.38964  Biso   1.000  C
  H98      1.0000 0.89300  0.64201  0.35897  Biso   1.000  H
  H99      1.0000 0.92998  0.64599  0.51098  Biso   1.000  H
  H100     1.0000 0.22100  0.69698  0.56892  Biso   1.000  H
  H101     1.0000 0.18898  0.69301  0.41700  Biso   1.000  H
  H102     1.0000 0.22102  0.69699  0.56901  Biso   1.000  H
  H103     1.0000 0.33001  0.97901  0.60693  Biso   1.000  H
  H104     1.0000 0.25499  0.98600  0.49194  Biso   1.000  H
  H105     1.0000 0.33002  0.97903  0.60702  Biso   1.000  H
  H106     1.0000 0.25501  0.98601  0.49202  Biso   1.000  H
  C117     1.0000 0.36398  0.06135  0.53790  Biso   1.000  C
  C118     1.0000 0.36399  0.06139  0.53790  Biso   1.000  C
  H107     1.0000 0.25501  0.22896  0.23799  Biso   1.000  H
  H108     1.0000 0.25503  0.22901  0.23799  Biso   1.000  H
  O23      1.0000 0.80651  0.22338  0.46542  Biso   1.000  O
  O24      1.0000 0.80647  0.22340  0.46551  Biso   1.000  O
  C119     1.0000 0.80193  0.15722  0.60822  Biso   1.000  C
  C120     1.0000 0.80188  0.15719  0.60831  Biso   1.000  C
  C121     1.0000 0.92428  0.15590  0.73752  Biso   1.000  C
  C122     1.0000 0.92430  0.15591  0.73761  Biso   1.000  C
  O25      1.0000 0.04892  0.22068  0.71642  Biso   1.000  O
  O26      1.0000 0.04888  0.22069  0.71650  Biso   1.000  O
  C123     1.0000 0.22659  0.46919  0.30747  Biso   1.000  C
  H109     1.0000 0.35100  0.53803  0.40100  Biso   1.000  H
  H110     1.0000 0.35099  0.53798  0.40100  Biso   1.000  H
  H111     1.0000 0.27801  0.56101  0.46001  Biso   1.000  H
  H112     1.0000 0.65603  0.13297  0.21000  Biso   1.000  H
  H113     1.0000 0.65599  0.13302  0.21000  Biso   1.000  H
  C124     1.0000 0.77612  0.27451  0.49528  Biso   1.000  C
  C125     1.0000 0.71228  0.13719  0.56628  Biso   1.000  C
  C126     1.0000 0.67191  0.18302  0.74861  Biso   1.000  C
  C127     1.0000 0.62992  0.22350  0.93263  Biso   1.000  C
  C128     1.0000 0.67620  0.38389  0.94988  Biso   1.000  C
  C129     1.0000 0.82858  0.52270  0.36988  Biso   1.000  C
  H114     1.0000 0.95403  0.54200  0.46001  Biso   1.000  H
  H115     1.0000 0.93402  0.53999  0.30800  Biso   1.000  H
  C130     1.0000 0.42639  0.07855  0.48800  Biso   1.000  C
  C131     1.0000 0.34289  0.11145  0.60487  Biso   1.000  C
  C132     1.0000 0.42640  0.07859  0.48800  Biso   1.000  C
  C133     1.0000 0.34290  0.11150  0.60487  Biso   1.000  C
  C134     1.0000 0.84241  0.13470  0.69674  Biso   1.000  C
  C135     1.0000 0.96882  0.13634  0.84160  Biso   1.000  C
  C136     1.0000 0.96881  0.13629  0.84160  Biso   1.000  C
  C137     1.0000 0.08952  0.27352  0.82077  Biso   1.000  C
  C138     1.0000 0.25841  0.42391  0.23861  Biso   1.000  C
  H116     1.0000 0.17603  0.47502  0.24791  Biso   1.000  H
  H117     1.0000 0.20802  0.44701  0.37399  Biso   1.000  H
  H118     1.0000 0.17598  0.47499  0.24800  Biso   1.000  H
  H119     1.0000 0.77900  0.30301  0.43099  Biso   1.000  H
  H120     1.0000 0.81099  0.30700  0.58300  Biso   1.000  H
  C139     1.0000 0.67071  0.06340  0.56727  Biso   1.000  C
  H121     1.0000 0.69297  0.13699  0.47391  Biso   1.000  H
  H122     1.0000 0.69299  0.13700  0.47400  Biso   1.000  H
  H123     1.0000 0.67800  0.14099  0.78097  Biso   1.000  H
  H124     1.0000 0.58599  0.24801  0.94398  Biso   1.000  H
  C140     1.0000 0.58910  0.15071  0.93290  Biso   1.000  C
  C141     1.0000 0.70601  0.25909  0.03617  Biso   1.000  C
  H125     1.0000 0.66199  0.43002  0.96196  Biso   1.000  H
  H126     1.0000 0.73599  0.39303  0.93996  Biso   1.000  H
  H127     1.0000 0.66198  0.42997  0.96196  Biso   1.000  H
  H128     1.0000 0.73597  0.39298  0.93996  Biso   1.000  H
  O27      1.0000 0.67290  0.36092  0.05093  Biso   1.000  O
  O28      1.0000 0.67290  0.36088  0.05102  Biso   1.000  O
  C142     1.0000 0.80352  0.45200  0.33125  Biso   1.000  C
  C143     1.0000 0.80348  0.45201  0.33134  Biso   1.000  C
  H129     1.0000 0.81602  0.53702  0.45393  Biso   1.000  H
  H130     1.0000 0.79601  0.54101  0.30398  Biso   1.000  H
  H131     1.0000 0.81602  0.53698  0.45402  Biso   1.000  H
  C144     1.0000 0.46790  0.14595  0.50508  Biso   1.000  C
  H132     1.0000 0.44299  0.03994  0.43596  Biso   1.000  H
  C145     1.0000 0.46792  0.14599  0.50508  Biso   1.000  C
  H133     1.0000 0.44300  0.03999  0.43596  Biso   1.000  H
  C146     1.0000 0.38440  0.17885  0.62195  Biso   1.000  C
  H134     1.0000 0.29497  0.09795  0.64395  Biso   1.000  H
  C147     1.0000 0.38444  0.17891  0.62204  Biso   1.000  C
  H135     1.0000 0.29500  0.09801  0.64403  Biso   1.000  H
  H136     1.0000 0.80903  0.09902  0.73403  Biso   1.000  H
  C148     1.0000 0.98469  0.18862  0.95239  Biso   1.000  C
  C149     1.0000 0.92773  0.06371  0.84455  Biso   1.000  C
  C150     1.0000 0.92769  0.06372  0.84464  Biso   1.000  C
  H137     1.0000 0.02501  0.13403  0.82998  Biso   1.000  H
  H138     1.0000 0.02499  0.13398  0.82998  Biso   1.000  H
  H139     1.0000 0.14502  0.30200  0.80896  Biso   1.000  H
  H140     1.0000 0.05300  0.30601  0.83293  Biso   1.000  H
  H141     1.0000 0.05302  0.30603  0.83302  Biso   1.000  H
  O29      1.0000 0.10720  0.25188  0.92547  Biso   1.000  O
  C151     1.0000 0.19713  0.35519  0.19400  Biso   1.000  C
  C152     1.0000 0.19707  0.35519  0.19400  Biso   1.000  C
  H142     1.0000 0.26901  0.44103  0.16297  Biso   1.000  H
  H143     1.0000 0.31302  0.42201  0.29298  Biso   1.000  H
  H144     1.0000 0.26899  0.44098  0.16297  Biso   1.000  H
  H145     1.0000 0.60802  0.05499  0.54795  Biso   1.000  H
  H146     1.0000 0.69299  0.05803  0.65597  Biso   1.000  H
  C153     1.0000 0.68333  0.01031  0.47892  Biso   1.000  C
  H147     1.0000 0.60798  0.05500  0.54804  Biso   1.000  H
  H148     1.0000 0.69298  0.05798  0.65597  Biso   1.000  H
  C154     1.0000 0.68329  0.01032  0.47901  Biso   1.000  C
  H149     1.0000 0.62501  0.12000  0.91099  Biso   1.000  H
  C155     1.0000 0.50680  0.12271  0.83829  Biso   1.000  C
  H150     1.0000 0.58201  0.15001  0.01999  Biso   1.000  H
  C156     1.0000 0.75932  0.22599  0.07766  Biso   1.000  C
  C157     1.0000 0.72549  0.32788  0.08374  Biso   1.000  C
  C158     1.0000 0.72551  0.32790  0.08383  Biso   1.000  C
  O30      1.0000 0.81840  0.43131  0.21322  Biso   1.000  O
  H151     1.0000 0.83600  0.43300  0.39492  Biso   1.000  H
  H152     1.0000 0.74101  0.43201  0.32204  Biso   1.000  H
  H153     1.0000 0.83601  0.43301  0.39501  Biso   1.000  H
  C159     1.0000 0.44681  0.19605  0.57205  Biso   1.000  C
  H154     1.0000 0.51599  0.15895  0.46591  Biso   1.000  H
  C160     1.0000 0.44679  0.19611  0.57214  Biso   1.000  C
  H155     1.0000 0.51602  0.15901  0.46600  Biso   1.000  H
  H156     1.0000 0.36802  0.21798  0.67399  Biso   1.000  H
  C161     1.0000 0.93571  0.18380  0.02580  Biso   1.000  C
  C162     1.0000 0.05001  0.24702  0.98950  Biso   1.000  C
  C163     1.0000 0.04999  0.24698  0.98950  Biso   1.000  C
  H157     1.0000 0.96199  0.05502  0.92199  Biso   1.000  H
  C164     1.0000 0.91989  0.00930  0.73689  Biso   1.000  C
  H158     1.0000 0.86902  0.06003  0.85296  Biso   1.000  H
  H159     1.0000 0.86900  0.05998  0.85296  Biso   1.000  H
  O31      1.0000 0.12594  0.35603  0.11727  Biso   1.000  O
  O32      1.0000 0.12587  0.35598  0.11727  Biso   1.000  O
  H160     1.0000 0.18401  0.33900  0.27000  Biso   1.000  H
  H161     1.0000 0.22100  0.32102  0.14598  Biso   1.000  H
  H162     1.0000 0.74501  0.01399  0.50798  Biso   1.000  H
  C165     1.0000 0.63599  0.93855  0.46202  Biso   1.000  C
  C166     1.0000 0.63602  0.93861  0.46211  Biso   1.000  C
  H163     1.0000 0.66999  0.02098  0.39299  Biso   1.000  H
  H164     1.0000 0.47102  0.15301  0.86199  Biso   1.000  H
  H165     1.0000 0.51504  0.12604  0.75200  Biso   1.000  H
  C167     1.0000 0.46311  0.05182  0.82774  Biso   1.000  C
  H166     1.0000 0.51502  0.12599  0.75200  Biso   1.000  H
  C168     1.0000 0.46311  0.05179  0.82783  Biso   1.000  C
  H167     1.0000 0.74402  0.17299  0.03993  Biso   1.000  H
  C169     1.0000 0.83062  0.25922  0.16583  Biso   1.000  C
  H168     1.0000 0.74398  0.17300  0.04002  Biso   1.000  H
  C170     1.0000 0.79993  0.36101  0.17182  Biso   1.000  C
  C171     1.0000 0.79989  0.36102  0.17191  Biso   1.000  C
  H169     1.0000 0.47899  0.24795  0.58493  Biso   1.000  H
  H170     1.0000 0.47902  0.24801  0.58502  Biso   1.000  H
  C172     1.0000 0.94690  0.23179  0.12657  Biso   1.000  C
  H171     1.0000 0.88502  0.13900  0.00103  Biso   1.000  H
  C173     1.0000 0.06410  0.29599  0.09000  Biso   1.000  C
  C174     1.0000 0.87362  0.94116  0.74360  Biso   1.000  C
  C175     1.0000 0.87358  0.94120  0.74360  Biso   1.000  C
  H172     1.0000 0.88902  0.01901  0.65794  Biso   1.000  H
  H173     1.0000 0.97804  0.00903  0.73197  Biso   1.000  H
  H174     1.0000 0.88903  0.01903  0.65803  Biso   1.000  H
  H175     1.0000 0.97797  0.00898  0.73197  Biso   1.000  H
  C176     1.0000 0.57358  0.92135  0.51192  Biso   1.000  C
  C177     1.0000 0.65708  0.88844  0.39505  Biso   1.000  C
  C178     1.0000 0.57361  0.92141  0.51201  Biso   1.000  C
  C179     1.0000 0.65711  0.88851  0.39514  Biso   1.000  C
  C180     1.0000 0.49212  0.00028  0.78634  Biso   1.000  C
  C181     1.0000 0.39101  0.03677  0.85546  Biso   1.000  C
  C182     1.0000 0.49208  0.00030  0.78643  Biso   1.000  C
  C183     1.0000 0.85009  0.32820  0.20866  Biso   1.000  C
  C184     1.0000 0.89001  0.22699  0.20607  Biso   1.000  C
  C185     1.0000 0.01361  0.28963  0.15805  Biso   1.000  C
  C186     1.0000 0.01361  0.28959  0.15814  Biso   1.000  C
  C187     1.0000 0.79598  0.91155  0.66902  Biso   1.000  C
  C188     1.0000 0.79601  0.91161  0.66911  Biso   1.000  C
  C189     1.0000 0.90468  0.90949  0.82470  Biso   1.000  C
  C190     1.0000 0.53207  0.85395  0.49484  Biso   1.000  C
  C191     1.0000 0.53210  0.85401  0.49493  Biso   1.000  C
  H176     1.0000 0.55700  0.96000  0.56396  Biso   1.000  H
  C192     1.0000 0.61557  0.82105  0.37797  Biso   1.000  C
  C193     1.0000 0.61558  0.82109  0.37797  Biso   1.000  C
  H177     1.0000 0.70502  0.90200  0.35597  Biso   1.000  H
  C194     1.0000 0.34788  0.97027  0.84169  Biso   1.000  C
  C195     1.0000 0.34789  0.97032  0.84169  Biso   1.000  C
  H178     1.0000 0.36802  0.07702  0.88801  Biso   1.000  H
  H179     1.0000 0.54800  0.01201  0.76497  Biso   1.000  H
  C196     1.0000 0.44900  0.93379  0.77266  Biso   1.000  C
  O33      1.0000 0.92063  0.36571  0.30112  Biso   1.000  O
  O34      1.0000 0.92058  0.36568  0.30121  Biso   1.000  O
  H180     1.0000 0.92301  0.25400  0.29799  Biso   1.000  H
  C197     1.0000 0.85422  0.15500  0.21411  Biso   1.000  C
  O35      1.0000 0.03142  0.34102  0.26401  Biso   1.000  O
  C198     1.0000 0.74947  0.85025  0.67573  Biso   1.000  C
  H181     1.0000 0.77202  0.93595  0.60598  Biso   1.000  H
  C199     1.0000 0.74950  0.85031  0.67582  Biso   1.000  C
  H182     1.0000 0.77197  0.93600  0.60598  Biso   1.000  H
  C200     1.0000 0.85815  0.84803  0.83132  Biso   1.000  C
  H183     1.0000 0.96501  0.93195  0.88193  Biso   1.000  H
  C201     1.0000 0.85818  0.84810  0.83141  Biso   1.000  C
  H184     1.0000 0.96499  0.93202  0.88202  Biso   1.000  H
  C202     1.0000 0.55321  0.80384  0.42786  Biso   1.000  C
  H185     1.0000 0.48400  0.84099  0.53400  Biso   1.000  H
  C203     1.0000 0.55317  0.80389  0.42786  Biso   1.000  C
  H186     1.0000 0.63196  0.78196  0.32593  Biso   1.000  H
  H187     1.0000 0.63200  0.78202  0.32602  Biso   1.000  H
  C204     1.0000 0.37690  0.91877  0.80029  Biso   1.000  C
  H188     1.0000 0.29200  0.95896  0.86297  Biso   1.000  H
  H189     1.0000 0.29202  0.95901  0.86297  Biso   1.000  H
  H190     1.0000 0.47097  0.89396  0.74092  Biso   1.000  H
  H191     1.0000 0.47100  0.89402  0.74100  Biso   1.000  H
  C205     1.0000 0.98749  0.38510  0.26079  Biso   1.000  C
  H192     1.0000 0.82299  0.12301  0.12496  Biso   1.000  H
  H193     1.0000 0.81297  0.15499  0.26696  Biso   1.000  H
  C206     1.0000 0.91753  0.12842  0.27081  Biso   1.000  C
  C207     1.0000 0.78058  0.81855  0.75692  Biso   1.000  C
  C208     1.0000 0.78061  0.81861  0.75701  Biso   1.000  C
  H194     1.0000 0.68897  0.82698  0.61797  Biso   1.000  H
  H195     1.0000 0.88201  0.82397  0.89400  Biso   1.000  H
  H196     1.0000 0.88202  0.82401  0.89400  Biso   1.000  H
  H197     1.0000 0.52098  0.75195  0.41499  Biso   1.000  H
  H198     1.0000 0.52099  0.75199  0.41499  Biso   1.000  H
  H199     1.0000 0.34401  0.86697  0.78992  Biso   1.000  H
  H200     1.0000 0.34397  0.86698  0.79001  Biso   1.000  H
  H201     1.0000 0.96801  0.38701  0.16994  Biso   1.000  H
  H202     1.0000 0.96802  0.38702  0.17003  Biso   1.000  H
  H203     1.0000 0.02503  0.43400  0.31703  Biso   1.000  H
  H204     1.0000 0.94299  0.15701  0.36299  Biso   1.000  H
  C209     1.0000 0.89129  0.05599  0.26848  Biso   1.000  C
  H205     1.0000 0.96301  0.13602  0.22502  Biso   1.000  H
  H206     1.0000 0.74496  0.77093  0.76193  Biso   1.000  H
  H207     1.0000 0.74499  0.77100  0.76202  Biso   1.000  H
  C210     1.0000 0.89379  0.03691  0.37408  Biso   1.000  C
  C211     1.0000 0.86603  0.00731  0.15912  Biso   1.000  C
  C212     1.0000 0.87112  0.96909  0.37033  Biso   1.000  C
  C213     1.0000 0.87109  0.96910  0.37042  Biso   1.000  C
  H208     1.0000 0.91301  0.07499  0.45894  Biso   1.000  H
  H209     1.0000 0.91302  0.07500  0.45903  Biso   1.000  H
  C214     1.0000 0.84331  0.93953  0.15528  Biso   1.000  C
  C215     1.0000 0.84329  0.93948  0.15528  Biso   1.000  C
  H210     1.0000 0.86403  0.02203  0.07695  Biso   1.000  H
  H211     1.0000 0.86398  0.02199  0.07704  Biso   1.000  H
  C216     1.0000 0.84579  0.92039  0.26088  Biso   1.000  C
  H212     1.0000 0.87299  0.95400  0.45197  Biso   1.000  H
  H213     1.0000 0.82401  0.90201  0.07096  Biso   1.000  H
  H214     1.0000 0.82800  0.86799  0.25793  Biso   1.000  H
  H215     1.0000 0.82801  0.86800  0.25802  Biso   1.000  H
  Ne1      1.0000 0.99994  0.50080  0.00056  Biso   1.000  Ne
  He1      1.0000 0.12797  0.54749  0.51987  Biso   1.000  He
  He2      1.0000 0.75497  0.56594  0.08035  Biso   1.000  He
  He3      1.0000 0.24534  0.43402  0.91961  Biso   1.000  He
  He4      1.0000 0.81108  0.19909  0.89092  Biso   1.000  He
  He5      1.0000 0.90711  0.44321  0.67978  Biso   1.000  He
  Ar1      1.0000 0.99987  0.50055  0.00095  Biso   1.000  Ar
