data_image0
_cell_length_a       13.821
_cell_length_b       17.424
_cell_length_c       29.61
_cell_angle_alpha    90
_cell_angle_beta     90
_cell_angle_gamma    90

_symmetry_space_group_name_H-M    "P 1"
_symmetry_int_tables_number       1

loop_
  _symmetry_equiv_pos_as_xyz
  'x, y, z'

loop_
  _atom_site_label
  _atom_site_occupancy
  _atom_site_fract_x
  _atom_site_fract_y
  _atom_site_fract_z
  _atom_site_thermal_displace_type
  _atom_site_B_iso_or_equiv
  _atom_site_type_symbol
  O1       1.0000 0.56718  0.43079  0.46781  Biso   1.000  O
  C1       1.0000 0.52522  0.36530  0.48690  Biso   1.000  C
  C2       1.0000 0.65523  0.41477  0.44390  Biso   1.000  C
  C3       1.0000 0.43600  0.38080  0.50949  Biso   1.000  C
  O2       1.0000 0.59981  0.33362  0.51449  Biso   1.000  O
  C4       1.0000 0.36133  0.42832  0.47950  Biso   1.000  C
  O3       1.0000 0.45098  0.42872  0.54890  Biso   1.000  O
  C5       1.0000 0.68620  0.36352  0.49429  Biso   1.000  C
  O4       1.0000 0.33073  0.37810  0.44279  Biso   1.000  O
  C6       1.0000 0.26981  0.44588  0.50530  Biso   1.000  C
  C7       1.0000 0.36799  0.44800  0.57639  Biso   1.000  C
  C8       1.0000 0.36510  0.39090  0.39919  Biso   1.000  C
  C9       1.0000 0.30157  0.49340  0.54590  Biso   1.000  C
  O5       1.0000 0.20288  0.48990  0.47639  Biso   1.000  O
  O6       1.0000 0.32429  0.37867  0.58909  Biso   1.000  O
  C10      1.0000 0.29253  0.39480  0.36420  Biso   1.000  C
  O7       1.0000 0.43600  0.33310  0.38831  Biso   1.000  O
  O8       1.0000 0.21163  0.51022  0.57450  Biso   1.000  O
  C11      1.0000 0.34650  0.35227  0.63411  Biso   1.000  C
  C12      1.0000 0.23631  0.31600  0.36039  Biso   1.000  C
  O9       1.0000 0.21590  0.44881  0.38200  Biso   1.000  O
  C13      1.0000 0.39592  0.25281  0.38909  Biso   1.000  C
  C14      1.0000 0.17119  0.58259  0.56741  Biso   1.000  C
  C15      1.0000 0.24383  0.35813  0.65910  Biso   1.000  C
  C16      1.0000 0.36770  0.26550  0.63100  Biso   1.000  C
  O10      1.0000 0.17307  0.31772  0.32209  Biso   1.000  O
  C17      1.0000 0.32060  0.25379  0.35120  Biso   1.000  C
  C18      1.0000 0.16547  0.48938  0.34671  Biso   1.000  C
  C19      1.0000 0.47450  0.20053  0.37690  Biso   1.000  C
  C20      1.0000 0.27241  0.32989  0.70851  Biso   1.000  C
  O11      1.0000 0.22321  0.43962  0.66359  Biso   1.000  O
  C21      1.0000 0.47023  0.25189  0.60740  Biso   1.000  C
  O12      1.0000 0.38593  0.24351  0.67869  Biso   1.000  O
  O13      1.0000 0.26641  0.18142  0.35502  Biso   1.000  O
  O14      1.0000 0.53759  0.19312  0.41641  Biso   1.000  O
  C22      1.0000 0.31163  0.24552  0.70841  Biso   1.000  C
  O15      1.0000 0.17510  0.32897  0.73161  Biso   1.000  O
  O16      1.0000 0.47052  0.17378  0.59399  Biso   1.000  O
  C23      1.0000 0.27039  0.12919  0.31729  Biso   1.000  C
  C24      1.0000 0.52543  0.13321  0.43961  Biso   1.000  C
  O17      1.0000 0.23377  0.19852  0.68970  Biso   1.000  O
  C25      1.0000 0.18320  0.32932  0.77822  Biso   1.000  C
  C26      1.0000 0.49989  0.14130  0.56221  Biso   1.000  C
  C27      1.0000 0.16547  0.09889  0.30669  Biso   1.000  C
  O18      1.0000 0.33239  0.06812  0.32820  Biso   1.000  O
  C28      1.0000 0.21192  0.12758  0.71300  Biso   1.000  C
  C29      1.0000 0.13653  0.05682  0.34900  Biso   1.000  C
  O19      1.0000 0.11114  0.16477  0.29811  Biso   1.000  O
  C30      1.0000 0.30548  0.02611  0.36849  Biso   1.000  C
  C31      1.0000 0.10383  0.11978  0.70990  Biso   1.000  C
  C32      1.0000 0.27314  0.06290  0.69301  Biso   1.000  C
  O20      1.0000 0.03799  0.02301  0.33941  Biso   1.000  O
  C33      1.0000 0.20780  0.99260  0.35910  Biso   1.000  C
  C34      1.0000 0.05072  0.15748  0.25778  Biso   1.000  C
  C35      1.0000 0.38420  0.96849  0.37761  Biso   1.000  C
  C36      1.0000 0.07279  0.04299  0.73202  Biso   1.000  C
  O21      1.0000 0.05231  0.18130  0.73370  Biso   1.000  O
  C37      1.0000 0.37573  0.06233  0.69791  Biso   1.000  C
  O22      1.0000 0.23739  0.99392  0.71699  Biso   1.000  O
  O23      1.0000 0.16931  0.95478  0.39959  Biso   1.000  O
  O24      1.0000 0.37501  0.90852  0.34421  Biso   1.000  O
  O25      1.0000 0.97562  0.02652  0.72421  Biso   1.000  O
  C38      1.0000 0.13718  0.97762  0.71371  Biso   1.000  C
  O26      1.0000 0.39990  0.08408  0.74421  Biso   1.000  O
  C39      1.0000 0.17097  0.87311  0.39959  Biso   1.000  C
  C40      1.0000 0.45062  0.84912  0.35201  Biso   1.000  C
  C41      1.0000 0.91578  0.01268  0.76430  Biso   1.000  C
  O27      1.0000 0.11483  0.97090  0.66640  Biso   1.000  O
  C42      1.0000 0.50640  0.08947  0.75069  Biso   1.000  C
  C43      1.0000 0.06649  0.84332  0.41169  Biso   1.000  C
  O28      1.0000 0.23739  0.84980  0.43350  Biso   1.000  O
  C44      1.0000 0.07807  0.89492  0.64971  Biso   1.000  C
  C45      1.0000 0.04102  0.86599  0.46059  Biso   1.000  C
  O29      1.0000 0.00340  0.87517  0.38021  Biso   1.000  O
  C46      1.0000 0.22017  0.87362  0.48041  Biso   1.000  C
  C47      1.0000 0.00087  0.91552  0.61729  Biso   1.000  C
  C48      1.0000 0.16721  0.86140  0.62479  Biso   1.000  C
  O30      1.0000 0.95391  0.82949  0.46991  Biso   1.000  O
  C49      1.0000 0.12351  0.83580  0.49271  Biso   1.000  C
  C50      1.0000 0.92439  0.82530  0.36700  Biso   1.000  C
  C51      1.0000 0.30533  0.84458  0.50990  Biso   1.000  C
  C52      1.0000 0.97417  0.84378  0.59341  Biso   1.000  C
  O31      1.0000 0.92048  0.94169  0.64519  Biso   1.000  O
  O32      1.0000 0.13089  0.79379  0.60101  Biso   1.000  O
  C53      1.0000 0.25548  0.83213  0.65681  Biso   1.000  C
  O33      1.0000 0.09182  0.86490  0.53681  Biso   1.000  O
  O34      1.0000 0.38029  0.89612  0.50179  Biso   1.000  O
  C54      1.0000 0.05173  0.80940  0.56751  Biso   1.000  C
  O35      1.0000 0.89270  0.85922  0.56001  Biso   1.000  O
  O36      1.0000 0.19847  0.78730  0.69520  Biso   1.000  O
  C55      1.0000 0.46429  0.88453  0.53141  Biso   1.000  C
  C56      1.0000 0.80168  0.84648  0.57568  Biso   1.000  C
  C57      1.0000 0.20302  0.71298  0.70611  Biso   1.000  C
  C58      1.0000 0.54099  0.63401  0.53941  Biso   1.000  C
  C59      1.0000 0.62347  0.66420  0.50729  Biso   1.000  C
  C60      1.0000 0.56653  0.65668  0.58831  Biso   1.000  C
  O37      1.0000 0.45387  0.67051  0.53009  Biso   1.000  O
  O38      1.0000 0.59178  0.63510  0.46319  Biso   1.000  O
  C61      1.0000 0.72021  0.62638  0.51959  Biso   1.000  C
  C62      1.0000 0.67101  0.62689  0.60041  Biso   1.000  C
  O39      1.0000 0.50336  0.62483  0.61979  Biso   1.000  O
  C63      1.0000 0.55170  0.69060  0.43249  Biso   1.000  C
  C64      1.0000 0.80530  0.65542  0.49010  Biso   1.000  C
  O40      1.0000 0.73743  0.65020  0.56650  Biso   1.000  O
  O41      1.0000 0.66927  0.54522  0.60041  Biso   1.000  O
  C65      1.0000 0.42443  0.67470  0.63300  Biso   1.000  C
  C66      1.0000 0.47421  0.65622  0.40659  Biso   1.000  C
  O42      1.0000 0.63092  0.70621  0.39899  Biso   1.000  O
  O43      1.0000 0.88033  0.60388  0.49821  Biso   1.000  O
  C67      1.0000 0.70784  0.50740  0.64090  Biso   1.000  C
  C68      1.0000 0.50090  0.58448  0.38271  Biso   1.000  C
  O44      1.0000 0.39274  0.64078  0.43999  Biso   1.000  O
  C69      1.0000 0.66717  0.63860  0.37521  Biso   1.000  C
  C70      1.0000 0.96433  0.61547  0.46859  Biso   1.000  C
  C71      1.0000 0.63650  0.44318  0.65100  Biso   1.000  C
  C72      1.0000 0.80551  0.47389  0.63151  Biso   1.000  C
  C73      1.0000 0.57811  0.60508  0.35029  Biso   1.000  C
  O45      1.0000 0.42052  0.55831  0.35481  Biso   1.000  O
  C74      1.0000 0.30171  0.65352  0.42432  Biso   1.000  C
  C75      1.0000 0.75552  0.66787  0.34319  Biso   1.000  C
  C76      1.0000 0.66551  0.40111  0.69331  Biso   1.000  C
  O46      1.0000 0.53802  0.47699  0.66059  Biso   1.000  O
  C77      1.0000 0.88423  0.53151  0.62239  Biso   1.000  C
  O47      1.0000 0.83243  0.43188  0.67180  Biso   1.000  O
  O48      1.0000 0.61479  0.52910  0.33360  Biso   1.000  O
  O49      1.0000 0.69850  0.71270  0.30480  Biso   1.000  O
  C78      1.0000 0.77042  0.37081  0.68271  Biso   1.000  C
  O50      1.0000 0.61110  0.33523  0.70189  Biso   1.000  O
  O51      1.0000 0.87497  0.59148  0.65579  Biso   1.000  O
  C79      1.0000 0.63722  0.52238  0.28629  Biso   1.000  C
  C80      1.0000 0.70299  0.78702  0.29389  Biso   1.000  C
  O52      1.0000 0.76637  0.31858  0.64498  Biso   1.000  O
  C81      1.0000 0.55068  0.34252  0.74222  Biso   1.000  C
  C82      1.0000 0.95058  0.65088  0.64799  Biso   1.000  C
  C83      1.0000 0.57282  0.45701  0.26798  Biso   1.000  C
  O53      1.0000 0.73743  0.50608  0.28301  Biso   1.000  O
  C84      1.0000 0.82064  0.24621  0.64880  Biso   1.000  C
  C85      1.0000 0.60379  0.38022  0.29010  Biso   1.000  C
  O54      1.0000 0.47558  0.47348  0.27579  Biso   1.000  O
  C86      1.0000 0.77310  0.43710  0.30699  Biso   1.000  C
  C87      1.0000 0.73627  0.18400  0.63961  Biso   1.000  C
  C88      1.0000 0.89588  0.24719  0.61091  Biso   1.000  C
  O55      1.0000 0.55228  0.31870  0.26630  Biso   1.000  O
  C89      1.0000 0.71189  0.37242  0.28700  Biso   1.000  C
  C90      1.0000 0.41582  0.48732  0.23570  Biso   1.000  C
  C91      1.0000 0.87570  0.43767  0.30209  Biso   1.000  C
  C92      1.0000 0.79249  0.10520  0.63580  Biso   1.000  C
  O56      1.0000 0.67311  0.18228  0.67791  Biso   1.000  O
  O57      1.0000 0.93597  0.16690  0.61169  Biso   1.000  O
  C93      1.0000 0.97453  0.29947  0.62310  Biso   1.000  C
  O58      1.0000 0.73381  0.30148  0.31030  Biso   1.000  O
  O59      1.0000 0.89993  0.41592  0.25579  Biso   1.000  O
  C94      1.0000 0.86513  0.10910  0.60081  Biso   1.000  C
  O60      1.0000 0.71587  0.05119  0.61800  Biso   1.000  O
  O61      1.0000 0.03762  0.30688  0.58359  Biso   1.000  O
  C95      1.0000 0.81159  0.25448  0.29159  Biso   1.000  C
  C96      1.0000 0.00637  0.41053  0.24931  Biso   1.000  C
  O62      1.0000 0.83069  0.12190  0.55721  Biso   1.000  O
  C97      1.0000 0.66551  0.01062  0.65329  Biso   1.000  C
  C98      1.0000 0.02540  0.36679  0.56039  Biso   1.000  C
  C99      1.0000 0.77238  0.17011  0.29149  Biso   1.000  C
  O63      1.0000 0.88590  0.25649  0.32131  Biso   1.000  O
  C100     1.0000 0.86130  0.07168  0.52050  Biso   1.000  C
  C101     1.0000 0.74380  0.14187  0.34090  Biso   1.000  C
  O64      1.0000 0.67513  0.17103  0.26839  Biso   1.000  O
  C102     1.0000 0.86767  0.23450  0.36900  Biso   1.000  C
  C103     1.0000 0.76977  0.05412  0.49470  Biso   1.000  C
  C104     1.0000 0.93597  0.11920  0.49051  Biso   1.000  C
  C105     1.0000 0.84647  0.14773  0.36589  Biso   1.000  C
  O65      1.0000 0.72317  0.06038  0.33641  Biso   1.000  O
  C106     1.0000 0.68324  0.17068  0.22178  Biso   1.000  C
  C107     1.0000 0.97019  0.24811  0.39260  Biso   1.000  C
  C108     1.0000 0.80161  0.00660  0.45410  Biso   1.000  C
  O66      1.0000 0.70292  0.01010  0.52361  Biso   1.000  O
  O67      1.0000 0.95102  0.07128  0.45110  Biso   1.000  O
  C109     1.0000 0.02518  0.13470  0.51310  Biso   1.000  C
  O68      1.0000 0.82433  0.12133  0.41091  Biso   1.000  O
  O69      1.0000 0.97048  0.32622  0.40601  Biso   1.000  O
  C110     1.0000 0.86803  0.05200  0.42361  Biso   1.000  C
  O70      1.0000 0.71160  0.98978  0.42550  Biso   1.000  O
  O71      1.0000 0.06722  0.06921  0.53219  Biso   1.000  O
  O72      1.0000 0.09978  0.16638  0.48551  Biso   1.000  O
  C111     1.0000 0.99993  0.35870  0.43779  Biso   1.000  C
  C112     1.0000 0.67122  0.91741  0.43259  Biso   1.000  C
  C113     1.0000 0.15520  0.08523  0.55610  Biso   1.000  C
  C114     1.0000 0.18617  0.13648  0.50571  Biso   1.000  C
  C115     1.0000 0.49360  0.58947  0.74931  Biso   1.000  C
  O73      1.0000 0.60010  0.58408  0.75579  Biso   1.000  O
  C116     1.0000 0.62427  0.56233  0.80209  Biso   1.000  C
  C117     1.0000 0.72686  0.56290  0.80699  Biso   1.000  C
  C118     1.0000 0.78808  0.62758  0.78700  Biso   1.000  C
  O74      1.0000 0.76261  0.49392  0.78301  Biso   1.000  O
  C119     1.0000 0.89617  0.61978  0.79010  Biso   1.000  C
  O75      1.0000 0.76623  0.69852  0.81030  Biso   1.000  O
  C120     1.0000 0.86282  0.47762  0.78629  Biso   1.000  C
  C121     1.0000 0.92721  0.54299  0.76798  Biso   1.000  C
  O76      1.0000 0.94769  0.68130  0.76630  Biso   1.000  O
  C122     1.0000 0.68837  0.74552  0.79159  Biso   1.000  C
  O77      1.0000 0.88517  0.47090  0.83360  Biso   1.000  O
  O78      1.0000 0.02438  0.52652  0.77579  Biso   1.000  O
  C123     1.0000 0.72759  0.82989  0.79149  Biso   1.000  C
  O79      1.0000 0.61407  0.74351  0.82131  Biso   1.000  O
  C124     1.0000 0.92193  0.39492  0.85029  Biso   1.000  C
  C125     1.0000 0.08422  0.51268  0.73570  Biso   1.000  C
  C126     1.0000 0.75617  0.85813  0.84090  Biso   1.000  C
  O80      1.0000 0.82490  0.82897  0.76839  Biso   1.000  O
  C127     1.0000 0.63230  0.76550  0.86900  Biso   1.000  C
  C128     1.0000 0.99913  0.41552  0.88271  Biso   1.000  C
  C129     1.0000 0.83279  0.36140  0.87521  Biso   1.000  C
  C130     1.0000 0.65350  0.85227  0.86589  Biso   1.000  C
  O81      1.0000 0.77679  0.93962  0.83641  Biso   1.000  O
  C131     1.0000 0.81680  0.82932  0.72178  Biso   1.000  C
  C132     1.0000 0.52977  0.75189  0.89260  Biso   1.000  C
  C133     1.0000 0.02583  0.34378  0.90659  Biso   1.000  C
  O82      1.0000 0.07952  0.44169  0.85481  Biso   1.000  O
  C134     1.0000 0.74452  0.33213  0.84319  Biso   1.000  C
  O83      1.0000 0.86911  0.29379  0.89899  Biso   1.000  O
  O84      1.0000 0.67571  0.87867  0.91091  Biso   1.000  O
  O85      1.0000 0.52948  0.67378  0.90601  Biso   1.000  O
  C135     1.0000 0.94827  0.30940  0.93249  Biso   1.000  C
  O86      1.0000 0.10730  0.35922  0.93999  Biso   1.000  O
  O87      1.0000 0.80153  0.28730  0.80480  Biso   1.000  O
  C136     1.0000 0.63201  0.94800  0.92361  Biso   1.000  C
  C137     1.0000 0.50011  0.64130  0.93779  Biso   1.000  C
  O88      1.0000 0.90818  0.36490  0.96319  Biso   1.000  O
  C138     1.0000 0.19832  0.34648  0.92432  Biso   1.000  C
  C139     1.0000 0.79698  0.21298  0.79389  Biso   1.000  C
  C140     1.0000 0.69843  0.99340  0.95410  Biso   1.000  C
  O89      1.0000 0.54902  0.92872  0.95110  Biso   1.000  O
  C141     1.0000 0.87649  0.33580  0.00729  Biso   1.000  C
  C142     1.0000 0.73019  0.94588  0.99470  Biso   1.000  C
  O90      1.0000 0.78837  0.01022  0.92550  Biso   1.000  O
  C143     1.0000 0.56400  0.88080  0.99051  Biso   1.000  C
  C144     1.0000 0.95898  0.36599  0.03941  Biso   1.000  C
  C145     1.0000 0.77983  0.37362  0.01959  Biso   1.000  C
  C146     1.0000 0.63867  0.92832  0.02050  Biso   1.000  C
  O91      1.0000 0.79712  0.98990  0.02361  Biso   1.000  O
  C147     1.0000 0.82881  0.08259  0.93259  Biso   1.000  C
  C148     1.0000 0.47478  0.86530  0.01310  Biso   1.000  C
  C149     1.0000 0.93351  0.34332  0.08831  Biso   1.000  C
  O92      1.0000 0.04609  0.32949  0.03009  Biso   1.000  O
  C150     1.0000 0.69467  0.34458  0.99010  Biso   1.000  C
  O93      1.0000 0.76261  0.34980  0.06650  Biso   1.000  O
  O94      1.0000 0.66927  0.87810  0.05721  Biso   1.000  O
  O95      1.0000 0.40019  0.83362  0.98551  Biso   1.000  O
  O96      1.0000 0.43282  0.93079  0.03219  Biso   1.000  O
  C151     1.0000 0.82903  0.37311  0.10041  Biso   1.000  C
  O97      1.0000 0.99660  0.37517  0.11979  Biso   1.000  O
  O98      1.0000 0.61971  0.39612  0.99821  Biso   1.000  O
  C152     1.0000 0.63490  0.89090  0.10081  Biso   1.000  C
  C153     1.0000 0.31380  0.86352  0.00571  Biso   1.000  C
  C154     1.0000 0.34477  0.91477  0.05610  Biso   1.000  C
  O99      1.0000 0.83069  0.45478  0.10041  Biso   1.000  O
  C155     1.0000 0.07561  0.32530  0.13300  Biso   1.000  C
  C156     1.0000 0.53571  0.38453  0.96859  Biso   1.000  C
  C157     1.0000 0.70747  0.89480  0.13580  Biso   1.000  C
  O100     1.0000 0.56400  0.83310  0.11169  Biso   1.000  O
  C158     1.0000 0.79220  0.49260  0.14090  Biso   1.000  C
  C159     1.0000 0.76369  0.81600  0.13961  Biso   1.000  C
  O101     1.0000 0.78410  0.94881  0.11800  Biso   1.000  O
  C160     1.0000 0.60408  0.75281  0.11091  Biso   1.000  C
  C161     1.0000 0.86347  0.55682  0.15100  Biso   1.000  C
  C162     1.0000 0.69452  0.52611  0.13151  Biso   1.000  C
  C163     1.0000 0.67940  0.75379  0.14880  Biso   1.000  C
  O102     1.0000 0.82693  0.81772  0.17791  Biso   1.000  O
  C164     1.0000 0.83453  0.98938  0.15329  Biso   1.000  C
  C165     1.0000 0.52550  0.70053  0.12310  Biso   1.000  C
  C166     1.0000 0.83453  0.59889  0.19331  Biso   1.000  C
  O103     1.0000 0.96201  0.52301  0.16059  Biso   1.000  O
  C167     1.0000 0.61580  0.46849  0.12239  Biso   1.000  C
  O104     1.0000 0.66761  0.56812  0.17180  Biso   1.000  O
  O105     1.0000 0.73359  0.68142  0.14498  Biso   1.000  O
  O106     1.0000 0.46241  0.69312  0.08359  Biso   1.000  O
  C168     1.0000 0.72961  0.62919  0.18271  Biso   1.000  C
  O107     1.0000 0.88886  0.66477  0.20189  Biso   1.000  O
  O108     1.0000 0.62499  0.40852  0.15579  Biso   1.000  O
  C169     1.0000 0.47457  0.63321  0.06039  Biso   1.000  C
  C170     1.0000 0.94928  0.65748  0.24222  Biso   1.000  C
  C171     1.0000 0.54938  0.34912  0.14799  Biso   1.000  C
  C172     1.0000 0.31676  0.67068  0.27822  Biso   1.000  C
  O109     1.0000 0.32487  0.67103  0.23161  Biso   1.000  O
  C173     1.0000 0.22762  0.67011  0.20851  Biso   1.000  C
  C174     1.0000 0.25620  0.64187  0.15910  Biso   1.000  C
  C175     1.0000 0.18841  0.75448  0.20841  Biso   1.000  C
  O110     1.0000 0.27683  0.56038  0.16359  Biso   1.000  O
  C176     1.0000 0.15353  0.64773  0.13411  Biso   1.000  C
  O111     1.0000 0.11410  0.75649  0.17869  Biso   1.000  O
  O112     1.0000 0.26619  0.80148  0.18970  Biso   1.000  O
  C177     1.0000 0.13233  0.73450  0.13100  Biso   1.000  C
  O113     1.0000 0.17567  0.62133  0.08909  Biso   1.000  O
  C178     1.0000 0.28811  0.87242  0.21300  Biso   1.000  C
  C179     1.0000 0.02981  0.74811  0.10740  Biso   1.000  C
  C180     1.0000 0.13197  0.55200  0.07639  Biso   1.000  C
  C181     1.0000 0.39621  0.88022  0.20990  Biso   1.000  C
  C182     1.0000 0.22690  0.93710  0.19301  Biso   1.000  C
  O114     1.0000 0.02952  0.82622  0.09399  Biso   1.000  O
  C183     1.0000 0.19839  0.50660  0.04590  Biso   1.000  C
  O115     1.0000 0.04898  0.57128  0.04890  Biso   1.000  O
  C184     1.0000 0.42718  0.95701  0.23202  Biso   1.000  C
  O116     1.0000 0.44772  0.81870  0.23370  Biso   1.000  O
  C185     1.0000 0.12430  0.93767  0.19791  Biso   1.000  C
  O117     1.0000 0.26257  0.00608  0.21699  Biso   1.000  O
  C186     1.0000 0.00007  0.85870  0.06221  Biso   1.000  C
  C187     1.0000 0.23023  0.55412  0.00530  Biso   1.000  C
  O118     1.0000 0.28840  0.48978  0.07450  Biso   1.000  O
  C188     1.0000 0.06403  0.61920  0.00949  Biso   1.000  C
  O119     1.0000 0.52442  0.97348  0.22421  Biso   1.000  O
  C189     1.0000 0.36278  0.02238  0.21371  Biso   1.000  C
  O120     1.0000 0.10007  0.91592  0.24421  Biso   1.000  O
  C190     1.0000 0.13870  0.57168  0.97950  Biso   1.000  C
  O121     1.0000 0.29708  0.51010  0.97639  Biso   1.000  O
  C191     1.0000 0.32878  0.41741  0.06741  Biso   1.000  C
  C192     1.0000 0.97482  0.63470  0.98690  Biso   1.000  C
  C193     1.0000 0.58418  0.98732  0.26430  Biso   1.000  C
  O122     1.0000 0.38521  0.02910  0.16640  Biso   1.000  O
  C194     1.0000 0.99363  0.91053  0.25069  Biso   1.000  C
  O123     1.0000 0.16931  0.62190  0.94279  Biso   1.000  O
  O124     1.0000 0.93278  0.56921  0.96781  Biso   1.000  O
  O125     1.0000 0.90022  0.66638  0.01449  Biso   1.000  O
  C195     1.0000 0.42189  0.10508  0.14971  Biso   1.000  C
  C196     1.0000 0.13487  0.60910  0.89919  Biso   1.000  C
  C197     1.0000 0.84480  0.58523  0.94390  Biso   1.000  C
  C198     1.0000 0.81383  0.63648  0.99429  Biso   1.000  C
  C199     1.0000 0.49910  0.08448  0.11729  Biso   1.000  C
  C200     1.0000 0.33283  0.13860  0.12479  Biso   1.000  C
  C201     1.0000 0.20751  0.60520  0.86420  Biso   1.000  C
  O126     1.0000 0.06403  0.66690  0.88831  Biso   1.000  O
  C202     1.0000 0.52579  0.15622  0.09341  Biso   1.000  C
  O127     1.0000 0.57948  0.05831  0.14519  Biso   1.000  O
  C203     1.0000 0.24448  0.16787  0.15681  Biso   1.000  C
  O128     1.0000 0.36908  0.20621  0.10101  Biso   1.000  O
  C204     1.0000 0.26373  0.68400  0.86039  Biso   1.000  C
  O129     1.0000 0.28413  0.55119  0.88200  Biso   1.000  O
  C205     1.0000 0.10412  0.74719  0.88909  Biso   1.000  C
  C206     1.0000 0.44830  0.19060  0.06751  Biso   1.000  C
  O130     1.0000 0.60726  0.14078  0.06001  Biso   1.000  O
  O131     1.0000 0.30150  0.21270  0.19520  Biso   1.000  O
  C207     1.0000 0.17936  0.74621  0.85120  Biso   1.000  C
  O132     1.0000 0.32689  0.68228  0.82209  Biso   1.000  O
  C208     1.0000 0.33449  0.51062  0.84671  Biso   1.000  C
  C209     1.0000 0.02547  0.79947  0.87690  Biso   1.000  C
  O133     1.0000 0.40822  0.13510  0.03681  Biso   1.000  O
  C210     1.0000 0.69829  0.15352  0.07568  Biso   1.000  C
  C211     1.0000 0.29701  0.28702  0.20611  Biso   1.000  C
  O134     1.0000 0.23363  0.81858  0.85502  Biso   1.000  O
  O135     1.0000 0.96238  0.80688  0.91641  Biso   1.000  O
  C212     1.0000 0.37653  0.16420  0.99271  Biso   1.000  C
  C213     1.0000 0.22958  0.87081  0.81729  Biso   1.000  C
  C214     1.0000 0.97460  0.86679  0.93961  Biso   1.000  C
  C215     1.0000 0.45901  0.13401  0.96059  Biso   1.000  C
  C216     1.0000 0.27979  0.12638  0.98041  Biso   1.000  C
  C217     1.0000 0.33449  0.90111  0.80669  Biso   1.000  C
  O136     1.0000 0.16757  0.93188  0.82820  Biso   1.000  O
  C218     1.0000 0.43347  0.15668  0.91169  Biso   1.000  C
  O137     1.0000 0.54613  0.17051  0.96991  Biso   1.000  O
  O138     1.0000 0.26257  0.15020  0.93350  Biso   1.000  O
  C219     1.0000 0.19470  0.15542  0.00990  Biso   1.000  C
  C220     1.0000 0.36350  0.94318  0.84900  Biso   1.000  C
  O139     1.0000 0.38890  0.83523  0.79811  Biso   1.000  O
  C221     1.0000 0.19449  0.97389  0.86849  Biso   1.000  C
  C222     1.0000 0.32899  0.12689  0.89959  Biso   1.000  C
  O140     1.0000 0.49664  0.12483  0.88021  Biso   1.000  O
  O141     1.0000 0.11967  0.10388  0.00179  Biso   1.000  O
  O142     1.0000 0.46198  0.97699  0.83941  Biso   1.000  O
  C223     1.0000 0.29216  0.00740  0.85910  Biso   1.000  C
  C224     1.0000 0.44932  0.84252  0.75778  Biso   1.000  C
  C225     1.0000 0.11577  0.03151  0.87761  Biso   1.000  C
  O143     1.0000 0.33073  0.04522  0.89959  Biso   1.000  O
  C226     1.0000 0.57557  0.17470  0.86700  Biso   1.000  C
  C227     1.0000 0.03567  0.11547  0.03141  Biso   1.000  C
  O144     1.0000 0.12503  0.09148  0.84421  Biso   1.000  O
  C228     1.0000 0.04942  0.15088  0.85201  Biso   1.000  C
