data_image0
_cell_length_a       11.691
_cell_length_b       13.399
_cell_length_c       13.665
_cell_angle_alpha    105.23
_cell_angle_beta     99.55
_cell_angle_gamma    102.61

_symmetry_space_group_name_H-M    "P 1"
_symmetry_int_tables_number       1

loop_
  _symmetry_equiv_pos_as_xyz
  'x, y, z'

loop_
  _atom_site_label
  _atom_site_occupancy
  _atom_site_fract_x
  _atom_site_fract_y
  _atom_site_fract_z
  _atom_site_thermal_displace_type
  _atom_site_B_iso_or_equiv
  _atom_site_type_symbol
  C1       1.0000 0.51667  0.30180  0.30634  Biso   1.000  C
  C2       1.0000 0.51675  0.30180  0.30634  Biso   1.000  C
  C3       1.0000 0.47677  0.40070  0.18120  Biso   1.000  C
  C4       1.0000 0.47679  0.40077  0.18120  Biso   1.000  C
  H1       1.0000 0.49122  0.24927  0.15778  Biso   1.000  H
  O1       1.0000 0.53335  0.38176  0.38317  Biso   1.000  O
  N1       1.0000 0.52212  0.20522  0.31618  Biso   1.000  N
  N2       1.0000 0.49479  0.30559  0.20759  Biso   1.000  N
  N3       1.0000 0.52204  0.20522  0.31618  Biso   1.000  N
  C5       1.0000 0.46173  0.37802  0.06495  Biso   1.000  C
  H2       1.0000 0.54578  0.46212  0.21828  Biso   1.000  H
  H3       1.0000 0.40559  0.41696  0.20119  Biso   1.000  H
  C6       1.0000 0.46181  0.37802  0.06495  Biso   1.000  C
  H4       1.0000 0.40557  0.41688  0.20119  Biso   1.000  H
  C7       1.0000 0.46179  0.37794  0.06495  Biso   1.000  C
  C8       1.0000 0.54832  0.18617  0.41674  Biso   1.000  C
  H5       1.0000 0.50940  0.15222  0.26028  Biso   1.000  H
  C9       1.0000 0.54842  0.18624  0.41674  Biso   1.000  C
  H6       1.0000 0.50938  0.15215  0.26028  Biso   1.000  H
  C10      1.0000 0.56402  0.38727  0.02077  Biso   1.000  C
  C11      1.0000 0.34727  0.34384  0.00094  Biso   1.000  C
  C12      1.0000 0.56410  0.38727  0.02077  Biso   1.000  C
  C13      1.0000 0.34733  0.34376  0.00094  Biso   1.000  C
  H7       1.0000 0.48446  0.19644  0.45218  Biso   1.000  H
  H8       1.0000 0.62336  0.23703  0.46022  Biso   1.000  H
  C14      1.0000 0.55834  0.07263  0.39964  Biso   1.000  C
  H9       1.0000 0.48454  0.19644  0.45218  Biso   1.000  H
  H10      1.0000 0.62347  0.23710  0.46022  Biso   1.000  H
  C15      1.0000 0.55832  0.07256  0.39964  Biso   1.000  C
  H11      1.0000 0.48452  0.19637  0.45218  Biso   1.000  H
  C16      1.0000 0.54874  0.36188  0.90991  Biso   1.000  C
  C17      1.0000 0.54883  0.36188  0.90991  Biso   1.000  C
  C18      1.0000 0.68364  0.42078  0.08361  Biso   1.000  C
  C19      1.0000 0.68370  0.42075  0.08353  Biso   1.000  C
  C20      1.0000 0.68370  0.42070  0.08361  Biso   1.000  C
  C21      1.0000 0.33157  0.32338  0.89211  Biso   1.000  C
  C22      1.0000 0.33165  0.32338  0.89211  Biso   1.000  C
  O2       1.0000 0.25297  0.33272  0.04817  Biso   1.000  O
  O3       1.0000 0.25295  0.33265  0.04817  Biso   1.000  O
  C23      1.0000 0.45344  0.98329  0.35467  Biso   1.000  C
  C24      1.0000 0.45355  0.98337  0.35467  Biso   1.000  C
  C25      1.0000 0.66932  0.05448  0.42727  Biso   1.000  C
  C26      1.0000 0.66939  0.05441  0.42727  Biso   1.000  C
  C27      1.0000 0.65124  0.36824  0.86478  Biso   1.000  C
  C28      1.0000 0.42964  0.33163  0.84909  Biso   1.000  C
  H12      1.0000 0.69572  0.43523  0.15551  Biso   1.000  H
  H13      1.0000 0.69583  0.43530  0.15551  Biso   1.000  H
  H14      1.0000 0.69581  0.43523  0.15551  Biso   1.000  H
  C29      1.0000 0.78082  0.43189  0.04067  Biso   1.000  C
  H15      1.0000 0.25440  0.30407  0.84948  Biso   1.000  H
  H16      1.0000 0.25432  0.30407  0.84948  Biso   1.000  H
  H17      1.0000 0.25442  0.30415  0.84948  Biso   1.000  H
  C30      1.0000 0.13202  0.30027  0.98548  Biso   1.000  C
  C31      1.0000 0.13212  0.30034  0.98548  Biso   1.000  C
  C32      1.0000 0.33744  0.99830  0.32727  Biso   1.000  C
  C33      1.0000 0.46261  0.87532  0.33703  Biso   1.000  C
  C34      1.0000 0.67781  0.94840  0.41650  Biso   1.000  C
  O4       1.0000 0.76735  0.14254  0.46631  Biso   1.000  O
  O5       1.0000 0.76733  0.14246  0.46631  Biso   1.000  O
  H18      1.0000 0.41712  0.31685  0.77711  Biso   1.000  H
  C35      1.0000 0.76384  0.40659  0.93106  Biso   1.000  C
  C36      1.0000 0.64119  0.33158  0.74690  Biso   1.000  C
  C37      1.0000 0.76388  0.40669  0.93114  Biso   1.000  C
  H19      1.0000 0.85831  0.45619  0.08338  Biso   1.000  H
  H20      1.0000 0.85833  0.45626  0.08338  Biso   1.000  H
  H21      1.0000 0.85841  0.45626  0.08338  Biso   1.000  H
  H22      1.0000 0.85839  0.45619  0.08338  Biso   1.000  H
  H23      1.0000 0.11755  0.23186  0.93208  Biso   1.000  H
  H24      1.0000 0.11952  0.35356  0.95152  Biso   1.000  H
  H25      1.0000 0.11757  0.23193  0.93208  Biso   1.000  H
  C38      1.0000 0.04742  0.29012  0.05722  Biso   1.000  C
  C39      1.0000 0.04744  0.29019  0.05722  Biso   1.000  C
  C40      1.0000 0.57744  0.86224  0.37263  Biso   1.000  C
  C41      1.0000 0.35728  0.78607  0.28878  Biso   1.000  C
  C42      1.0000 0.57754  0.86232  0.37263  Biso   1.000  C
  C43      1.0000 0.35738  0.78615  0.28878  Biso   1.000  C
  C44      1.0000 0.23655  0.91290  0.28862  Biso   1.000  C
  C45      1.0000 0.23666  0.91297  0.28862  Biso   1.000  C
  H26      1.0000 0.32980  0.06754  0.33570  Biso   1.000  H
  H27      1.0000 0.32978  0.06746  0.33570  Biso   1.000  H
  H28      1.0000 0.75214  0.93714  0.43938  Biso   1.000  H
  C46      1.0000 0.88367  0.12764  0.50004  Biso   1.000  C
  C47      1.0000 0.88378  0.12771  0.50004  Biso   1.000  C
  O6       1.0000 0.87072  0.42303  0.89906  Biso   1.000  O
  H29      1.0000 0.56789  0.34158  0.70888  Biso   1.000  H
  C48      1.0000 0.75423  0.39717  0.72605  Biso   1.000  C
  C49      1.0000 0.64266  0.21400  0.71122  Biso   1.000  C
  C50      1.0000 0.64274  0.21400  0.71122  Biso   1.000  C
  C51      1.0000 0.93387  0.21910  0.01718  Biso   1.000  C
  H30      1.0000 0.07171  0.33114  0.12733  Biso   1.000  H
  H31      1.0000 0.07179  0.33114  0.12733  Biso   1.000  H
  H32      1.0000 0.07177  0.33107  0.12733  Biso   1.000  H
  H33      1.0000 0.01840  0.34674  0.08861  Biso   1.000  H
  C52      1.0000 0.01670  0.19233  0.07260  Biso   1.000  C
  H34      1.0000 0.58518  0.79330  0.36607  Biso   1.000  H
  H35      1.0000 0.58519  0.79338  0.36607  Biso   1.000  H
  C53      1.0000 0.35883  0.66850  0.25310  Biso   1.000  C
  C54      1.0000 0.35885  0.66858  0.25310  Biso   1.000  C
  C55      1.0000 0.24739  0.80748  0.27059  Biso   1.000  C
  H36      1.0000 0.16091  0.92454  0.27434  Biso   1.000  H
  H37      1.0000 0.90553  0.08253  0.44203  Biso   1.000  H
  H38      1.0000 0.90555  0.08261  0.44203  Biso   1.000  H
  C56      1.0000 0.97271  0.23793  0.54118  Biso   1.000  C
  H39      1.0000 0.88289  0.09338  0.55429  Biso   1.000  H
  C57      1.0000 0.97269  0.23786  0.54118  Biso   1.000  C
  C58      1.0000 0.86239  0.38113  0.79062  Biso   1.000  C
  H40      1.0000 0.75673  0.47276  0.74549  Biso   1.000  H
  H41      1.0000 0.75363  0.37279  0.65251  Biso   1.000  H
  H42      1.0000 0.75675  0.47284  0.74549  Biso   1.000  H
  C59      1.0000 0.53743  0.12484  0.66297  Biso   1.000  C
  C60      1.0000 0.75262  0.19260  0.72941  Biso   1.000  C
  C61      1.0000 0.75273  0.19268  0.72941  Biso   1.000  C
  H43      1.0000 0.89298  0.23952  0.96081  Biso   1.000  H
  C62      1.0000 0.92467  0.09970  0.97603  Biso   1.000  C
  H44      1.0000 0.88945  0.22890  0.07143  Biso   1.000  H
  H45      1.0000 0.98132  0.19962  0.13264  Biso   1.000  H
  H46      1.0000 0.08960  0.17066  0.08923  Biso   1.000  H
  C63      1.0000 0.34870  0.63184  0.13522  Biso   1.000  C
  H47      1.0000 0.43205  0.65849  0.29112  Biso   1.000  H
  C64      1.0000 0.24579  0.60290  0.27395  Biso   1.000  C
  C65      1.0000 0.24581  0.60298  0.27395  Biso   1.000  C
  C66      1.0000 0.34880  0.63191  0.13522  Biso   1.000  C
  H48      1.0000 0.43215  0.65857  0.29112  Biso   1.000  H
  O7       1.0000 0.13812  0.72888  0.23194  Biso   1.000  O
  H49      1.0000 0.94215  0.28534  0.59060  Biso   1.000  H
  H50      1.0000 0.97986  0.26690  0.48380  Biso   1.000  H
  H51      1.0000 0.97997  0.26698  0.48380  Biso   1.000  H
  H52      1.0000 0.94216  0.28541  0.59060  Biso   1.000  H
  C67      1.0000 0.09556  0.23599  0.59411  Biso   1.000  C
  C68      1.0000 0.09554  0.23591  0.59411  Biso   1.000  C
  H53      1.0000 0.93491  0.42013  0.77508  Biso   1.000  H
  O8       1.0000 0.86198  0.27120  0.76806  Biso   1.000  O
  O9       1.0000 0.86192  0.27128  0.76806  Biso   1.000  O
  C69      1.0000 0.54649  0.01679  0.64533  Biso   1.000  C
  C70      1.0000 0.42258  0.13784  0.62737  Biso   1.000  C
  C71      1.0000 0.76338  0.08718  0.71138  Biso   1.000  C
  H54      1.0000 0.84130  0.05936  0.95058  Biso   1.000  H
  H55      1.0000 0.96528  0.08749  0.92021  Biso   1.000  H
  H56      1.0000 0.84140  0.05943  0.95058  Biso   1.000  H
  H57      1.0000 0.90774  0.03382  0.99313  Biso   1.000  H
  H58      1.0000 0.95954  0.09004  0.91647  Biso   1.000  H
  H59      1.0000 0.85117  0.11920  0.96003  Biso   1.000  H
  H60      1.0000 0.96182  0.07679  0.03131  Biso   1.000  H
  H61      1.0000 0.96183  0.07686  0.03131  Biso   1.000  H
  C72      1.0000 0.23618  0.59349  0.06894  Biso   1.000  C
  C73      1.0000 0.45121  0.63827  0.09009  Biso   1.000  C
  H62      1.0000 0.24329  0.52732  0.25451  Biso   1.000  H
  H63      1.0000 0.24639  0.62729  0.34749  Biso   1.000  H
  C74      1.0000 0.13763  0.61894  0.20938  Biso   1.000  C
  H64      1.0000 0.24641  0.62736  0.34749  Biso   1.000  H
  C75      1.0000 0.13765  0.61902  0.20938  Biso   1.000  C
  H65      1.0000 0.08847  0.20605  0.65087  Biso   1.000  H
  C76      1.0000 0.18241  0.34758  0.63642  Biso   1.000  C
  H66      1.0000 0.12713  0.18978  0.54438  Biso   1.000  H
  H67      1.0000 0.12712  0.18971  0.54438  Biso   1.000  H
  H68      1.0000 0.08845  0.20597  0.65087  Biso   1.000  H
  C77      1.0000 0.18239  0.34750  0.63642  Biso   1.000  C
  C78      1.0000 0.44172  0.92760  0.60036  Biso   1.000  C
  C79      1.0000 0.44170  0.92752  0.60036  Biso   1.000  C
  C80      1.0000 0.66249  0.00177  0.67273  Biso   1.000  C
  C81      1.0000 0.66260  0.00185  0.67273  Biso   1.000  C
  H69      1.0000 0.41476  0.20678  0.63393  Biso   1.000  H
  H70      1.0000 0.41484  0.20678  0.63393  Biso   1.000  H
  C82      1.0000 0.32214  0.05175  0.58350  Biso   1.000  C
  H71      1.0000 0.41486  0.20685  0.63393  Biso   1.000  H
  H72      1.0000 0.83915  0.07564  0.72574  Biso   1.000  H
  C83      1.0000 0.43594  0.61288  0.97923  Biso   1.000  C
  C84      1.0000 0.43594  0.61283  0.97931  Biso   1.000  C
  C85      1.0000 0.43592  0.61280  0.97923  Biso   1.000  C
  C86      1.0000 0.57038  0.66844  0.15091  Biso   1.000  C
  C87      1.0000 0.57048  0.66852  0.15091  Biso   1.000  C
  C88      1.0000 0.21922  0.56827  0.95933  Biso   1.000  C
  C89      1.0000 0.21929  0.56819  0.95933  Biso   1.000  C
  O10      1.0000 0.12932  0.57712  0.10094  Biso   1.000  O
  H73      1.0000 0.06513  0.58002  0.22492  Biso   1.000  H
  H74      1.0000 0.15366  0.39231  0.68850  Biso   1.000  H
  H75      1.0000 0.18808  0.37802  0.58053  Biso   1.000  H
  H76      1.0000 0.26058  0.34330  0.66703  Biso   1.000  H
  H77      1.0000 0.15365  0.39224  0.68850  Biso   1.000  H
  C90      1.0000 0.45164  0.81398  0.58326  Biso   1.000  C
  C91      1.0000 0.33071  0.94567  0.57273  Biso   1.000  C
  C92      1.0000 0.45170  0.81391  0.58326  Biso   1.000  C
  H78      1.0000 0.67016  0.93262  0.66430  Biso   1.000  H
  H79      1.0000 0.67014  0.93254  0.66430  Biso   1.000  H
  H80      1.0000 0.67024  0.93262  0.66430  Biso   1.000  H
  H81      1.0000 0.24790  0.06301  0.56062  Biso   1.000  H
  C93      1.0000 0.53823  0.62214  0.93505  Biso   1.000  C
  C94      1.0000 0.53821  0.62206  0.93505  Biso   1.000  C
  C95      1.0000 0.31632  0.57933  0.91647  Biso   1.000  C
  C96      1.0000 0.53831  0.62214  0.93505  Biso   1.000  C
  C97      1.0000 0.31642  0.57940  0.91647  Biso   1.000  C
  H82      1.0000 0.58292  0.68330  0.22289  Biso   1.000  H
  C98      1.0000 0.66837  0.67670  0.10789  Biso   1.000  C
  C99      1.0000 0.66839  0.67678  0.10789  Biso   1.000  C
  H83      1.0000 0.14165  0.54397  0.91662  Biso   1.000  H
  H84      1.0000 0.14163  0.54389  0.91662  Biso   1.000  H
  O11      1.0000 0.23268  0.85761  0.53369  Biso   1.000  O
  O12      1.0000 0.23267  0.85754  0.53369  Biso   1.000  O
  H85      1.0000 0.51550  0.80371  0.54782  Biso   1.000  H
  H86      1.0000 0.51548  0.80363  0.54782  Biso   1.000  H
  H87      1.0000 0.37657  0.76305  0.53978  Biso   1.000  H
  N4       1.0000 0.47790  0.79486  0.68382  Biso   1.000  N
  C100     1.0000 0.52327  0.59946  0.81880  Biso   1.000  C
  C101     1.0000 0.65267  0.65624  0.99906  Biso   1.000  C
  C102     1.0000 0.52325  0.59938  0.81880  Biso   1.000  C
  H88      1.0000 0.30430  0.56485  0.84449  Biso   1.000  H
  H89      1.0000 0.74562  0.69600  0.15052  Biso   1.000  H
  C103     1.0000 0.11628  0.87252  0.49996  Biso   1.000  C
  C104     1.0000 0.11635  0.87244  0.49996  Biso   1.000  C
  C105     1.0000 0.11637  0.87246  0.50004  Biso   1.000  C
  C106     1.0000 0.48327  0.69828  0.69366  Biso   1.000  C
  H90      1.0000 0.49055  0.84793  0.73972  Biso   1.000  H
  H91      1.0000 0.49053  0.84785  0.73972  Biso   1.000  H
  H92      1.0000 0.49064  0.84793  0.73972  Biso   1.000  H
  O13      1.0000 0.74705  0.66735  0.95183  Biso   1.000  O
  H93      1.0000 0.45426  0.53803  0.78172  Biso   1.000  H
  N5       1.0000 0.50525  0.69456  0.79241  Biso   1.000  N
  H94      1.0000 0.45424  0.53795  0.78172  Biso   1.000  H
  N6       1.0000 0.50515  0.69448  0.79241  Biso   1.000  N
  H95      1.0000 0.59453  0.58319  0.79881  Biso   1.000  H
  H96      1.0000 0.09451  0.91762  0.55797  Biso   1.000  H
  C107     1.0000 0.02733  0.76222  0.45882  Biso   1.000  C
  H97      1.0000 0.09449  0.91754  0.55797  Biso   1.000  H
  H98      1.0000 0.11703  0.90662  0.44571  Biso   1.000  H
  C108     1.0000 0.02731  0.76214  0.45882  Biso   1.000  C
  H99      1.0000 0.11713  0.90669  0.44571  Biso   1.000  H
  O14      1.0000 0.46667  0.61832  0.61683  Biso   1.000  O
  C109     1.0000 0.86792  0.69981  0.01452  Biso   1.000  C
  H100     1.0000 0.50880  0.75081  0.84222  Biso   1.000  H
  H101     1.0000 0.50878  0.75073  0.84222  Biso   1.000  H
  C110     1.0000 0.90449  0.76424  0.40589  Biso   1.000  C
  C111     1.0000 0.90447  0.76417  0.40589  Biso   1.000  C
  C112     1.0000 0.90439  0.76417  0.40589  Biso   1.000  C
  H102     1.0000 0.05789  0.71482  0.40940  Biso   1.000  H
  H103     1.0000 0.02007  0.73317  0.51620  Biso   1.000  H
  H104     1.0000 0.05787  0.71474  0.40940  Biso   1.000  H
  C113     1.0000 0.95260  0.70996  0.94278  Biso   1.000  C
  H105     1.0000 0.88052  0.64659  0.04848  Biso   1.000  H
  H106     1.0000 0.88247  0.76822  0.06792  Biso   1.000  H
  H107     1.0000 0.87284  0.81045  0.45562  Biso   1.000  H
  H108     1.0000 0.91157  0.79410  0.34913  Biso   1.000  H
  H109     1.0000 0.87282  0.81037  0.45562  Biso   1.000  H
  H110     1.0000 0.91155  0.79403  0.34913  Biso   1.000  H
  C114     1.0000 0.81761  0.65250  0.36358  Biso   1.000  C
  H111     1.0000 0.91148  0.79410  0.34913  Biso   1.000  H
  H112     1.0000 0.92823  0.66893  0.87267  Biso   1.000  H
  H113     1.0000 0.92833  0.66901  0.87267  Biso   1.000  H
  H114     1.0000 0.98163  0.65341  0.91139  Biso   1.000  H
  C115     1.0000 0.98334  0.80782  0.92740  Biso   1.000  C
  C116     1.0000 0.06624  0.78098  0.98282  Biso   1.000  C
  H115     1.0000 0.81193  0.62206  0.41947  Biso   1.000  H
  H116     1.0000 0.73944  0.65678  0.33297  Biso   1.000  H
  H117     1.0000 0.73942  0.65670  0.33297  Biso   1.000  H
  H118     1.0000 0.84637  0.60784  0.31150  Biso   1.000  H
  H119     1.0000 0.81185  0.62206  0.41947  Biso   1.000  H
  H120     1.0000 0.73935  0.65678  0.33297  Biso   1.000  H
  H121     1.0000 0.84629  0.60784  0.31150  Biso   1.000  H
  H122     1.0000 0.91035  0.82949  0.91077  Biso   1.000  H
  H123     1.0000 0.01872  0.80048  0.86744  Biso   1.000  H
  C117     1.0000 0.07535  0.90037  0.02397  Biso   1.000  C
  C118     1.0000 0.07537  0.90045  0.02397  Biso   1.000  C
  H124     1.0000 0.11061  0.77133  0.92857  Biso   1.000  H
  H125     1.0000 0.11059  0.77126  0.92857  Biso   1.000  H
  H126     1.0000 0.10706  0.76063  0.03919  Biso   1.000  H
  H127     1.0000 0.03822  0.92337  0.96869  Biso   1.000  H
  H128     1.0000 0.03820  0.92329  0.96869  Biso   1.000  H
  H129     1.0000 0.15864  0.94072  0.04942  Biso   1.000  H
  H130     1.0000 0.03474  0.91258  0.07979  Biso   1.000  H
  H131     1.0000 0.03476  0.91266  0.07979  Biso   1.000  H
  H132     1.0000 0.09230  0.96633  0.00687  Biso   1.000  H
  H133     1.0000 0.04048  0.91004  0.08353  Biso   1.000  H
  H134     1.0000 0.14886  0.88095  0.03997  Biso   1.000  H
