data_image0
_cell_length_a       11.992
_cell_length_b       12.642
_cell_length_c       13.39
_cell_angle_alpha    78.03
_cell_angle_beta     69.89
_cell_angle_gamma    65.52

_symmetry_space_group_name_H-M    "P 1"
_symmetry_int_tables_number       1

loop_
  _symmetry_equiv_pos_as_xyz
  'x, y, z'

loop_
  _atom_site_label
  _atom_site_occupancy
  _atom_site_fract_x
  _atom_site_fract_y
  _atom_site_fract_z
  _atom_site_thermal_displace_type
  _atom_site_B_iso_or_equiv
  _atom_site_type_symbol
  C1       1.0000 0.36099  0.53201  0.25739  Biso   1.000  C
  C2       1.0000 0.38965  0.56887  0.13169  Biso   1.000  C
  C3       1.0000 0.42804  0.46399  0.21097  Biso   1.000  C
  H1       1.0000 0.39929  0.56714  0.28969  Biso   1.000  H
  H2       1.0000 0.26767  0.56034  0.29209  Biso   1.000  H
  C4       1.0000 0.41998  0.39601  0.27502  Biso   1.000  C
  H3       1.0000 0.35457  0.43834  0.24670  Biso   1.000  H
  H4       1.0000 0.44796  0.48713  0.26720  Biso   1.000  H
  O1       1.0000 0.34082  0.52519  0.07051  Biso   1.000  O
  H5       1.0000 0.35404  0.65510  0.12220  Biso   1.000  H
  H6       1.0000 0.48362  0.54308  0.10002  Biso   1.000  H
  H7       1.0000 0.32279  0.63841  0.16830  Biso   1.000  H
  H8       1.0000 0.46446  0.58813  0.08606  Biso   1.000  H
  C5       1.0000 0.54696  0.35999  0.15402  Biso   1.000  C
  H9       1.0000 0.39102  0.37397  0.35207  Biso   1.000  H
  H10      1.0000 0.38587  0.36282  0.23721  Biso   1.000  H
  C6       1.0000 0.56299  0.34302  0.23801  Biso   1.000  C
  C7       1.0000 0.20820  0.56068  0.09843  Biso   1.000  C
  H11      1.0000 0.59290  0.35479  0.16016  Biso   1.000  H
  H12      1.0000 0.52419  0.33561  0.10010  Biso   1.000  H
  H13      1.0000 0.61732  0.38828  0.11470  Biso   1.000  H
  C8       1.0000 0.59296  0.26204  0.22102  Biso   1.000  C
  H14      1.0000 0.59155  0.25952  0.25970  Biso   1.000  H
  H15      1.0000 0.59861  0.38033  0.27023  Biso   1.000  H
  H16      1.0000 0.60247  0.28670  0.28092  Biso   1.000  H
  C9       1.0000 0.15473  0.48297  0.10696  Biso   1.000  C
  C10      1.0000 0.13303  0.68341  0.10050  Biso   1.000  C
  H17      1.0000 0.67612  0.20889  0.18066  Biso   1.000  H
  H18      1.0000 0.53212  0.22250  0.24702  Biso   1.000  H
  C11      1.0000 0.23870  0.35218  0.10568  Biso   1.000  C
  C12      1.0000 0.02241  0.51888  0.12666  Biso   1.000  C
  C13      1.0000 0.00360  0.71868  0.12164  Biso   1.000  C
  H19      1.0000 0.17234  0.73846  0.08750  Biso   1.000  H
  N1       1.0000 0.21031  0.30033  0.21520  Biso   1.000  N
  H20      1.0000 0.33044  0.34118  0.07801  Biso   1.000  H
  H21      1.0000 0.21946  0.31468  0.05902  Biso   1.000  H
  C14      1.0000 0.94333  0.63985  0.13528  Biso   1.000  C
  C15      1.0000 0.96169  0.43952  0.13727  Biso   1.000  C
  H22      1.0000 0.95237  0.79930  0.12730  Biso   1.000  H
  C16      1.0000 0.27828  0.18702  0.23897  Biso   1.000  C
  H23      1.0000 0.14879  0.34287  0.26601  Biso   1.000  H
  C17      1.0000 0.80744  0.67736  0.15657  Biso   1.000  C
  H24      1.0000 0.01206  0.35850  0.13432  Biso   1.000  H
  C18      1.0000 0.83559  0.47590  0.15131  Biso   1.000  C
  N2       1.0000 0.24392  0.15427  0.34553  Biso   1.000  N
  O2       1.0000 0.36093  0.11956  0.17213  Biso   1.000  O
  C19      1.0000 0.75780  0.59531  0.16399  Biso   1.000  C
  C20      1.0000 0.71479  0.80393  0.17308  Biso   1.000  C
  H25      1.0000 0.79861  0.42197  0.15282  Biso   1.000  H
  C21      1.0000 0.31522  0.03936  0.38852  Biso   1.000  C
  H26      1.0000 0.17781  0.20334  0.38892  Biso   1.000  H
  O3       1.0000 0.62918  0.61778  0.17803  Biso   1.000  O
  H27      1.0000 0.75523  0.85884  0.12626  Biso   1.000  H
  C22      1.0000 0.59243  0.82090  0.14668  Biso   1.000  C
  C23      1.0000 0.67192  0.82943  0.29201  Biso   1.000  C
  C24      1.0000 0.27843  0.04120  0.50768  Biso   1.000  C
  H28      1.0000 0.40833  0.02090  0.35749  Biso   1.000  H
  H29      1.0000 0.29428  0.97906  0.37049  Biso   1.000  H
  C25      1.0000 0.54566  0.73102  0.20961  Biso   1.000  C
  H30      1.0000 0.52662  0.89921  0.16447  Biso   1.000  H
  H31      1.0000 0.61201  0.81400  0.06963  Biso   1.000  H
  C26      1.0000 0.71597  0.89153  0.33229  Biso   1.000  C
  C27      1.0000 0.58406  0.78409  0.35654  Biso   1.000  C
  C28      1.0000 0.32419  0.10303  0.55227  Biso   1.000  C
  C29      1.0000 0.20055  0.98618  0.57157  Biso   1.000  C
  H32      1.0000 0.46204  0.74693  0.19797  Biso   1.000  H
  O4       1.0000 0.52444  0.72829  0.32208  Biso   1.000  O
  C30      1.0000 0.79266  0.95492  0.27023  Biso   1.000  C
  C31      1.0000 0.67578  0.89699  0.44770  Biso   1.000  C
  C32      1.0000 0.54162  0.79078  0.46860  Biso   1.000  C
  C33      1.0000 0.28401  0.10849  0.66769  Biso   1.000  C
  C34      1.0000 0.41094  0.15578  0.48958  Biso   1.000  C
  C35      1.0000 0.16901  0.98551  0.68643  Biso   1.000  C
  O5       1.0000 0.13247  0.95222  0.51582  Biso   1.000  O
  O6       1.0000 0.17638  0.90857  0.53799  Biso   1.000  O
  H33      1.0000 0.81782  0.95510  0.19470  Biso   1.000  H
  C36      1.0000 0.83102  0.01450  0.31362  Biso   1.000  C
  C37      1.0000 0.72163  0.95882  0.49229  Biso   1.000  C
  C38      1.0000 0.58911  0.84424  0.51040  Biso   1.000  C
  H34      1.0000 0.48096  0.75808  0.51287  Biso   1.000  H
  C39      1.0000 0.20729  0.04509  0.72982  Biso   1.000  C
  C40      1.0000 0.32814  0.17059  0.70797  Biso   1.000  C
  C41      1.0000 0.45835  0.20924  0.53137  Biso   1.000  C
  H35      1.0000 0.43684  0.15351  0.41428  Biso   1.000  H
  H36      1.0000 0.12012  0.94162  0.73142  Biso   1.000  H
  C42      1.0000 0.05599  0.88002  0.56998  Biso   1.000  C
  C43      1.0000 0.11200  0.83397  0.60116  Biso   1.000  C
  C44      1.0000 0.79951  0.01384  0.42840  Biso   1.000  C
  H37      1.0000 0.87991  0.05839  0.26864  Biso   1.000  H
  C45      1.0000 0.68476  0.96056  0.61153  Biso   1.000  C
  H38      1.0000 0.56322  0.84651  0.58569  Biso   1.000  H
  H39      1.0000 0.18224  0.04491  0.80528  Biso   1.000  H
  C46      1.0000 0.28519  0.19609  0.82689  Biso   1.000  C
  C47      1.0000 0.41588  0.21592  0.64352  Biso   1.000  C
  H40      1.0000 0.51914  0.24186  0.48711  Biso   1.000  H
  H41      1.0000 0.98720  0.91927  0.63219  Biso   1.000  H
  H42      1.0000 0.01425  0.87300  0.52053  Biso   1.000  H
  C48      1.0000 0.13398  0.75897  0.60731  Biso   1.000  C
  H43      1.0000 0.02580  0.88030  0.64503  Biso   1.000  H
  C49      1.0000 0.10099  0.76787  0.52739  Biso   1.000  C
  H44      1.0000 0.18312  0.76517  0.65102  Biso   1.000  H
  H45      1.0000 0.16092  0.77928  0.64958  Biso   1.000  H
  O7       1.0000 0.86748  0.04779  0.48423  Biso   1.000  O
  O8       1.0000 0.82363  0.09136  0.46198  Biso   1.000  O
  H46      1.0000 0.59173  0.97912  0.64248  Biso   1.000  H
  N3       1.0000 0.75614  0.84566  0.65453  Biso   1.000  N
  H47      1.0000 0.70573  0.02087  0.62948  Biso   1.000  H
  C50      1.0000 0.19258  0.32257  0.84340  Biso   1.000  C
  H48      1.0000 0.24483  0.14118  0.87371  Biso   1.000  H
  C51      1.0000 0.40763  0.17912  0.85329  Biso   1.000  C
  O9       1.0000 0.47562  0.27173  0.67790  Biso   1.000  O
  H49      1.0000 0.07697  0.71858  0.65213  Biso   1.000  H
  C52      1.0000 0.22598  0.69100  0.51103  Biso   1.000  C
  H50      1.0000 0.17520  0.67636  0.47490  Biso   1.000  H
  H51      1.0000 0.05411  0.71707  0.56982  Biso   1.000  H
  H52      1.0000 0.05001  0.82386  0.48112  Biso   1.000  H
  C53      1.0000 0.23402  0.69003  0.45472  Biso   1.000  C
  C54      1.0000 0.94398  0.12000  0.43000  Biso   1.000  C
  C55      1.0000 0.88801  0.16596  0.39881  Biso   1.000  C
  C56      1.0000 0.72169  0.81300  0.76101  Biso   1.000  C
  H53      1.0000 0.82222  0.79668  0.61113  Biso   1.000  H
  C57      1.0000 0.05673  0.36017  0.86470  Biso   1.000  C
  C58      1.0000 0.24218  0.40471  0.83598  Biso   1.000  C
  H54      1.0000 0.47343  0.10081  0.83550  Biso   1.000  H
  H55      1.0000 0.38802  0.18602  0.93042  Biso   1.000  H
  C59      1.0000 0.45429  0.26899  0.79044  Biso   1.000  C
  H56      1.0000 0.27048  0.74018  0.46102  Biso   1.000  H
  C60      1.0000 0.31839  0.58422  0.53369  Biso   1.000  C
  H57      1.0000 0.22075  0.65359  0.40367  Biso   1.000  H
  H58      1.0000 0.28367  0.73944  0.41341  Biso   1.000  H
  H59      1.0000 0.98569  0.12701  0.47953  Biso   1.000  H
  C61      1.0000 0.86599  0.24104  0.39267  Biso   1.000  C
  H60      1.0000 0.97423  0.11971  0.35502  Biso   1.000  H
  C62      1.0000 0.89902  0.23206  0.47259  Biso   1.000  C
  H61      1.0000 0.01282  0.08067  0.36778  Biso   1.000  H
  H62      1.0000 0.81694  0.23476  0.34904  Biso   1.000  H
  H63      1.0000 0.83906  0.22074  0.35039  Biso   1.000  H
  N4       1.0000 0.78975  0.69969  0.78478  Biso   1.000  N
  O10      1.0000 0.63914  0.88037  0.82793  Biso   1.000  O
  C63      1.0000 0.97757  0.48114  0.87331  Biso   1.000  C
  C64      1.0000 0.99635  0.28133  0.87842  Biso   1.000  C
  C65      1.0000 0.16438  0.52412  0.84867  Biso   1.000  C
  O11      1.0000 0.37077  0.38223  0.82203  Biso   1.000  O
  H64      1.0000 0.53802  0.25309  0.80200  Biso   1.000  H
  H65      1.0000 0.37265  0.54699  0.46709  Biso   1.000  H
  H66      1.0000 0.27588  0.53338  0.58170  Biso   1.000  H
  H67      1.0000 0.37150  0.59738  0.56782  Biso   1.000  H
  H68      1.0000 0.40122  0.53589  0.48870  Biso   1.000  H
  H69      1.0000 0.26950  0.53526  0.57381  Biso   1.000  H
  H70      1.0000 0.33237  0.62102  0.58354  Biso   1.000  H
  H71      1.0000 0.92298  0.28144  0.34792  Biso   1.000  H
  C66      1.0000 0.77396  0.30901  0.48902  Biso   1.000  C
  H72      1.0000 0.82481  0.32357  0.52507  Biso   1.000  H
  H73      1.0000 0.94588  0.28286  0.43024  Biso   1.000  H
  H74      1.0000 0.94997  0.17607  0.51893  Biso   1.000  H
  C67      1.0000 0.76601  0.30998  0.54533  Biso   1.000  C
  C68      1.0000 0.76127  0.64784  0.89429  Biso   1.000  C
  H75      1.0000 0.85123  0.65706  0.73397  Biso   1.000  H
  C69      1.0000 0.03828  0.56050  0.86270  Biso   1.000  C
  C70      1.0000 0.84528  0.51696  0.89301  Biso   1.000  C
  H76      1.0000 0.04761  0.20072  0.87267  Biso   1.000  H
  C71      1.0000 0.86703  0.31661  0.89947  Biso   1.000  C
  H77      1.0000 0.20134  0.57804  0.84723  Biso   1.000  H
  H78      1.0000 0.72946  0.25983  0.53903  Biso   1.000  H
  C72      1.0000 0.68159  0.41580  0.46629  Biso   1.000  C
  H79      1.0000 0.77931  0.34643  0.59630  Biso   1.000  H
  H80      1.0000 0.71631  0.26058  0.58657  Biso   1.000  H
  H81      1.0000 0.66962  0.65884  0.92197  Biso   1.000  H
  H82      1.0000 0.78048  0.68533  0.94103  Biso   1.000  H
  H83      1.0000 0.98789  0.64152  0.86573  Biso   1.000  H
  C73      1.0000 0.79175  0.43933  0.90163  Biso   1.000  C
  H84      1.0000 0.82775  0.26147  0.91247  Biso   1.000  H
  H85      1.0000 0.62741  0.45303  0.53289  Biso   1.000  H
  H86      1.0000 0.72410  0.46663  0.41827  Biso   1.000  H
  H87      1.0000 0.62845  0.40264  0.43223  Biso   1.000  H
  H88      1.0000 0.59876  0.46413  0.51127  Biso   1.000  H
  H89      1.0000 0.73051  0.46467  0.42617  Biso   1.000  H
  H90      1.0000 0.66757  0.37900  0.41652  Biso   1.000  H
  O12      1.0000 0.65923  0.47483  0.92946  Biso   1.000  O
  C74      1.0000 0.61045  0.43106  0.86829  Biso   1.000  C
  H91      1.0000 0.64601  0.34492  0.87778  Biso   1.000  H
  H92      1.0000 0.51641  0.45693  0.90003  Biso   1.000  H
  C75      1.0000 0.63898  0.46800  0.74258  Biso   1.000  C
  H93      1.0000 0.67719  0.36161  0.83168  Biso   1.000  H
  H94      1.0000 0.53551  0.41189  0.91391  Biso   1.000  H
  C76      1.0000 0.57201  0.53603  0.78900  Biso   1.000  C
  H95      1.0000 0.60068  0.43288  0.71028  Biso   1.000  H
  H96      1.0000 0.73230  0.43968  0.70789  Biso   1.000  H
  C77      1.0000 0.57997  0.60400  0.72503  Biso   1.000  C
  H97      1.0000 0.64541  0.56168  0.75327  Biso   1.000  H
  H98      1.0000 0.55201  0.51288  0.73277  Biso   1.000  H
  C78      1.0000 0.45299  0.64002  0.84603  Biso   1.000  C
  H99      1.0000 0.60899  0.62597  0.64791  Biso   1.000  H
  H100     1.0000 0.61411  0.63720  0.76276  Biso   1.000  H
  C79      1.0000 0.43699  0.65700  0.76196  Biso   1.000  C
  H101     1.0000 0.40707  0.64523  0.83981  Biso   1.000  H
  H102     1.0000 0.47579  0.66441  0.89987  Biso   1.000  H
  H103     1.0000 0.38265  0.61173  0.88528  Biso   1.000  H
  C80      1.0000 0.40699  0.73798  0.77903  Biso   1.000  C
  H104     1.0000 0.40842  0.74050  0.74027  Biso   1.000  H
  H105     1.0000 0.40142  0.61969  0.72982  Biso   1.000  H
  H106     1.0000 0.39748  0.71331  0.71913  Biso   1.000  H
  H107     1.0000 0.32386  0.79113  0.81931  Biso   1.000  H
  H108     1.0000 0.46791  0.77751  0.75303  Biso   1.000  H
  Ne1      1.0000 0.00000  0.50000  0.50000  Biso   1.000  Ne
  He1      1.0000 0.85484  0.48499  0.44470  Biso   1.000  He
  He2      1.0000 0.17653  0.73176  0.54121  Biso   1.000  He
  Ar1      1.0000 0.00002  0.49998  0.49998  Biso   1.000  Ar
