data_image0
_cell_length_a       19.477
_cell_length_b       24.208
_cell_length_c       13.288
_cell_angle_alpha    90
_cell_angle_beta     131.42
_cell_angle_gamma    90

_symmetry_space_group_name_H-M    "P 1"
_symmetry_int_tables_number       1

loop_
  _symmetry_equiv_pos_as_xyz
  'x, y, z'

loop_
  _atom_site_label
  _atom_site_occupancy
  _atom_site_fract_x
  _atom_site_fract_y
  _atom_site_fract_z
  _atom_site_thermal_displace_type
  _atom_site_B_iso_or_equiv
  _atom_site_type_symbol
  N1       1.0000 0.57350  0.62930  0.46014  Biso   1.000  N
  C1       1.0000 0.66363  0.62099  0.53470  Biso   1.000  C
  C2       1.0000 0.51494  0.65751  0.32506  Biso   1.000  C
  H1       1.0000 0.54760  0.61781  0.49115  Biso   1.000  H
  C3       1.0000 0.71630  0.58522  0.64219  Biso   1.000  C
  H2       1.0000 0.69331  0.64132  0.51172  Biso   1.000  H
  C4       1.0000 0.47387  0.61211  0.21687  Biso   1.000  C
  C5       1.0000 0.45100  0.69539  0.30499  Biso   1.000  C
  H3       1.0000 0.55742  0.67961  0.32305  Biso   1.000  H
  C6       1.0000 0.67299  0.54870  0.67591  Biso   1.000  C
  C7       1.0000 0.81381  0.57650  0.70260  Biso   1.000  C
  N2       1.0000 0.53858  0.57031  0.25150  Biso   1.000  N
  H4       1.0000 0.42433  0.59340  0.20814  Biso   1.000  H
  C8       1.0000 0.42820  0.64132  0.08350  Biso   1.000  C
  C9       1.0000 0.40037  0.71951  0.16358  Biso   1.000  C
  H5       1.0000 0.48284  0.72488  0.37393  Biso   1.000  H
  H6       1.0000 0.40781  0.67631  0.30860  Biso   1.000  H
  C10      1.0000 0.72852  0.50149  0.76914  Biso   1.000  C
  O1       1.0000 0.59643  0.55688  0.63596  Biso   1.000  O
  C11      1.0000 0.86600  0.53011  0.79162  Biso   1.000  C
  O2       1.0000 0.84498  0.60641  0.66918  Biso   1.000  O
  C12      1.0000 0.54458  0.52528  0.30609  Biso   1.000  C
  H7       1.0000 0.57482  0.57588  0.23464  Biso   1.000  H
  H8       1.0000 0.47580  0.65780  0.08601  Biso   1.000  H
  H9       1.0000 0.39373  0.61401  0.00963  Biso   1.000  H
  C13      1.0000 0.36459  0.68539  0.05700  Biso   1.000  C
  H10      1.0000 0.34951  0.74248  0.14020  Biso   1.000  H
  H11      1.0000 0.44351  0.74492  0.17111  Biso   1.000  H
  C14      1.0000 0.68224  0.46072  0.77205  Biso   1.000  C
  C15      1.0000 0.82595  0.49190  0.82825  Biso   1.000  C
  C16      1.0000 0.94435  0.51661  0.83086  Biso   1.000  C
  C17      1.0000 0.62263  0.48641  0.38346  Biso   1.000  C
  H12      1.0000 0.49312  0.51561  0.29615  Biso   1.000  H
  H13      1.0000 0.30871  0.66780  0.03001  Biso   1.000  H
  H14      1.0000 0.34624  0.70811  0.98063  Biso   1.000  H
  N3       1.0000 0.71601  0.41420  0.84049  Biso   1.000  N
  H15      1.0000 0.61836  0.46621  0.71866  Biso   1.000  H
  O3       1.0000 0.86901  0.45510  0.90623  Biso   1.000  O
  N4       1.0000 0.99330  0.54482  0.81169  Biso   1.000  N
  H16      1.0000 0.96981  0.48282  0.87863  Biso   1.000  H
  C18      1.0000 0.61015  0.44089  0.43635  Biso   1.000  C
  C19      1.0000 0.70134  0.50471  0.40303  Biso   1.000  C
  C20      1.0000 0.66183  0.36889  0.81681  Biso   1.000  C
  H17      1.0000 0.77582  0.41139  0.90452  Biso   1.000  H
  H18      1.0000 0.98133  0.58001  0.78961  Biso   1.000  H
  C21      1.0000 0.07032  0.51669  0.82785  Biso   1.000  C
  C22      1.0000 0.69338  0.40879  0.52677  Biso   1.000  C
  O4       1.0000 0.54261  0.42581  0.41548  Biso   1.000  O
  C23      1.0000 0.78185  0.46951  0.49767  Biso   1.000  C
  O5       1.0000 0.70571  0.54449  0.35185  Biso   1.000  O
  C24      1.0000 0.65600  0.32398  0.72709  Biso   1.000  C
  C25      1.0000 0.69684  0.33799  0.94657  Biso   1.000  C
  H19      1.0000 0.59842  0.38260  0.76924  Biso   1.000  H
  C26      1.0000 0.02821  0.49620  0.68815  Biso   1.000  C
  C27      1.0000 0.14400  0.55482  0.87893  Biso   1.000  C
  H20      1.0000 0.09412  0.48451  0.89037  Biso   1.000  H
  C28      1.0000 0.70112  0.36769  0.61037  Biso   1.000  C
  C29      1.0000 0.77934  0.42048  0.55116  Biso   1.000  C
  C30      1.0000 0.86183  0.48529  0.53360  Biso   1.000  C
  C31      1.0000 0.58842  0.28069  0.68965  Biso   1.000  C
  H21      1.0000 0.71757  0.30610  0.78058  Biso   1.000  H
  N5       1.0000 0.63514  0.35319  0.60887  Biso   1.000  N
  C32      1.0000 0.63272  0.28858  0.91747  Biso   1.000  C
  H22      1.0000 0.75902  0.32349  0.99334  Biso   1.000  H
  H23      1.0000 0.70150  0.36471  0.00718  Biso   1.000  H
  N6       1.0000 0.94421  0.46072  0.61669  Biso   1.000  N
  H24      1.0000 0.01362  0.52871  0.63044  Biso   1.000  H
  C33      1.0000 0.10483  0.46059  0.71003  Biso   1.000  C
  C34      1.0000 0.22604  0.52470  0.90121  Biso   1.000  C
  H25      1.0000 0.16673  0.57039  0.96514  Biso   1.000  H
  H26      1.0000 0.12092  0.58559  0.81460  Biso   1.000  H
  H27      1.0000 0.75820  0.34931  0.67199  Biso   1.000  H
  O6       1.0000 0.84801  0.38929  0.62663  Biso   1.000  O
  H28      1.0000 0.85963  0.51880  0.49426  Biso   1.000  H
  C35      1.0000 0.61982  0.25198  0.81881  Biso   1.000  C
  H29      1.0000 0.58364  0.25310  0.63024  Biso   1.000  H
  H30      1.0000 0.52732  0.29759  0.64038  Biso   1.000  H
  H31      1.0000 0.57792  0.36058  0.53761  Biso   1.000  H
  H32      1.0000 0.57282  0.30308  0.88224  Biso   1.000  H
  H33      1.0000 0.66109  0.26809  0.00126  Biso   1.000  H
  H34      1.0000 0.94895  0.42482  0.62924  Biso   1.000  H
  H35      1.0000 0.12432  0.43039  0.77426  Biso   1.000  H
  H36      1.0000 0.08070  0.44411  0.62392  Biso   1.000  H
  C36      1.0000 0.18851  0.49901  0.76643  Biso   1.000  C
  H37      1.0000 0.27490  0.55172  0.93292  Biso   1.000  H
  H38      1.0000 0.25223  0.49550  0.97005  Biso   1.000  H
  H39      1.0000 0.57391  0.22360  0.79252  Biso   1.000  H
  H40      1.0000 0.67834  0.23261  0.86237  Biso   1.000  H
  H41      1.0000 0.23726  0.47720  0.78048  Biso   1.000  H
  H42      1.0000 0.16919  0.52871  0.70110  Biso   1.000  H
  N7       1.0000 0.42653  0.62930  0.53992  Biso   1.000  N
  C37      1.0000 0.33645  0.62099  0.46536  Biso   1.000  C
  C38      1.0000 0.48513  0.65751  0.67500  Biso   1.000  C
  H43      1.0000 0.45242  0.61781  0.50891  Biso   1.000  H
  C39      1.0000 0.28368  0.58522  0.35777  Biso   1.000  C
  H44      1.0000 0.30672  0.64132  0.48834  Biso   1.000  H
  C40      1.0000 0.52611  0.61211  0.78309  Biso   1.000  C
  C41      1.0000 0.54903  0.69539  0.69507  Biso   1.000  C
  H45      1.0000 0.44260  0.67961  0.67701  Biso   1.000  H
  C42      1.0000 0.32703  0.54870  0.32415  Biso   1.000  C
  C43      1.0000 0.18622  0.57650  0.29746  Biso   1.000  C
  N8       1.0000 0.46145  0.57031  0.74856  Biso   1.000  N
  H46      1.0000 0.57569  0.59340  0.79192  Biso   1.000  H
  C44      1.0000 0.57183  0.64132  0.91656  Biso   1.000  C
  C45      1.0000 0.59965  0.71951  0.83648  Biso   1.000  C
  H47      1.0000 0.51724  0.72488  0.62613  Biso   1.000  H
  H48      1.0000 0.59222  0.67631  0.69146  Biso   1.000  H
  C46      1.0000 0.27150  0.50149  0.23092  Biso   1.000  C
  O7       1.0000 0.40359  0.55688  0.36410  Biso   1.000  O
  C47      1.0000 0.13403  0.53011  0.20844  Biso   1.000  C
  O8       1.0000 0.15500  0.60641  0.33078  Biso   1.000  O
  C48      1.0000 0.45544  0.52528  0.69397  Biso   1.000  C
  H49      1.0000 0.42521  0.57588  0.76542  Biso   1.000  H
  H50      1.0000 0.52423  0.65780  0.91405  Biso   1.000  H
  H51      1.0000 0.60635  0.61401  0.99043  Biso   1.000  H
  C49      1.0000 0.63544  0.68539  0.94306  Biso   1.000  C
  H52      1.0000 0.65051  0.74248  0.85986  Biso   1.000  H
  H53      1.0000 0.55652  0.74492  0.82895  Biso   1.000  H
  C50      1.0000 0.31778  0.46072  0.22801  Biso   1.000  C
  C51      1.0000 0.17412  0.49190  0.17181  Biso   1.000  C
  C52      1.0000 0.05568  0.51661  0.16920  Biso   1.000  C
  C53      1.0000 0.37739  0.48641  0.61659  Biso   1.000  C
  H54      1.0000 0.50691  0.51561  0.70391  Biso   1.000  H
  H55      1.0000 0.69131  0.66780  0.97005  Biso   1.000  H
  H56      1.0000 0.65379  0.70811  0.01943  Biso   1.000  H
  N9       1.0000 0.28397  0.41420  0.15947  Biso   1.000  N
  H57      1.0000 0.38172  0.46621  0.28140  Biso   1.000  H
  O9       1.0000 0.13102  0.45510  0.09383  Biso   1.000  O
  N10      1.0000 0.00668  0.54482  0.18827  Biso   1.000  N
  H58      1.0000 0.03022  0.48282  0.12143  Biso   1.000  H
  C54      1.0000 0.38992  0.44089  0.56371  Biso   1.000  C
  C55      1.0000 0.29873  0.50471  0.59702  Biso   1.000  C
  C56      1.0000 0.33824  0.36889  0.18325  Biso   1.000  C
  H59      1.0000 0.22421  0.41139  0.09554  Biso   1.000  H
  H60      1.0000 0.01874  0.58001  0.21045  Biso   1.000  H
  C57      1.0000 0.92971  0.51669  0.17221  Biso   1.000  C
  C58      1.0000 0.30661  0.40879  0.47318  Biso   1.000  C
  O10      1.0000 0.45742  0.42581  0.58448  Biso   1.000  O
  C59      1.0000 0.21818  0.46951  0.50239  Biso   1.000  C
  O11      1.0000 0.29432  0.54449  0.64821  Biso   1.000  O
  C60      1.0000 0.34399  0.32398  0.27287  Biso   1.000  C
  H61      1.0000 0.40161  0.38260  0.23082  Biso   1.000  H
  C61      1.0000 0.30319  0.33799  0.05349  Biso   1.000  C
  C62      1.0000 0.97181  0.49620  0.31191  Biso   1.000  C
  C63      1.0000 0.85603  0.55482  0.12113  Biso   1.000  C
  H62      1.0000 0.90590  0.48451  0.10969  Biso   1.000  H
  C64      1.0000 0.29890  0.36769  0.38969  Biso   1.000  C
  C65      1.0000 0.22068  0.42048  0.44890  Biso   1.000  C
  C66      1.0000 0.13825  0.48529  0.46646  Biso   1.000  C
  C67      1.0000 0.41160  0.28069  0.31040  Biso   1.000  C
  H63      1.0000 0.28251  0.30610  0.21948  Biso   1.000  H
  N11      1.0000 0.36489  0.35319  0.39119  Biso   1.000  N
  H64      1.0000 0.24101  0.32349  0.00672  Biso   1.000  H
  C68      1.0000 0.36731  0.28858  0.08259  Biso   1.000  C
  H65      1.0000 0.29852  0.36471  0.99287  Biso   1.000  H
  N12      1.0000 0.05582  0.46072  0.38336  Biso   1.000  N
  H66      1.0000 0.98641  0.52871  0.36962  Biso   1.000  H
  C69      1.0000 0.89519  0.46059  0.29003  Biso   1.000  C
  C70      1.0000 0.77404  0.52470  0.09885  Biso   1.000  C
  H67      1.0000 0.83329  0.57039  0.03492  Biso   1.000  H
  H68      1.0000 0.87906  0.58559  0.18536  Biso   1.000  H
  H69      1.0000 0.24178  0.34931  0.32797  Biso   1.000  H
  O12      1.0000 0.15202  0.38929  0.37343  Biso   1.000  O
  H70      1.0000 0.14040  0.51880  0.50580  Biso   1.000  H
  C71      1.0000 0.38021  0.25198  0.18125  Biso   1.000  C
  H71      1.0000 0.41639  0.25310  0.36982  Biso   1.000  H
  H72      1.0000 0.47271  0.29759  0.35968  Biso   1.000  H
  H73      1.0000 0.42211  0.36058  0.46245  Biso   1.000  H
  H74      1.0000 0.42721  0.30308  0.11782  Biso   1.000  H
  H75      1.0000 0.33893  0.26809  0.99880  Biso   1.000  H
  H76      1.0000 0.05113  0.42482  0.37082  Biso   1.000  H
  H77      1.0000 0.87570  0.43039  0.22580  Biso   1.000  H
  H78      1.0000 0.91932  0.44411  0.37614  Biso   1.000  H
  C72      1.0000 0.81151  0.49901  0.23363  Biso   1.000  C
  H79      1.0000 0.72512  0.55172  0.06714  Biso   1.000  H
  H80      1.0000 0.74779  0.49550  0.03001  Biso   1.000  H
  H81      1.0000 0.42612  0.22360  0.20754  Biso   1.000  H
  H82      1.0000 0.32168  0.23261  0.13769  Biso   1.000  H
  H83      1.0000 0.76281  0.47720  0.21958  Biso   1.000  H
  H84      1.0000 0.83079  0.52871  0.29886  Biso   1.000  H
  O13      1.0000 0.65204  0.88929  0.37343  Biso   1.000  O
  C73      1.0000 0.72071  0.92048  0.44890  Biso   1.000  C
  C74      1.0000 0.80658  0.90879  0.47318  Biso   1.000  C
  C75      1.0000 0.71821  0.96951  0.50239  Biso   1.000  C
  C76      1.0000 0.79888  0.86769  0.38969  Biso   1.000  C
  C77      1.0000 0.88990  0.94089  0.56371  Biso   1.000  C
  C78      1.0000 0.63822  0.98529  0.46646  Biso   1.000  C
  C79      1.0000 0.79871  0.00471  0.59702  Biso   1.000  C
  N13      1.0000 0.86492  0.85319  0.39119  Biso   1.000  N
  H85      1.0000 0.74181  0.84931  0.32797  Biso   1.000  H
  O14      1.0000 0.95739  0.92581  0.58448  Biso   1.000  O
  C80      1.0000 0.87742  0.98641  0.61659  Biso   1.000  C
  N14      1.0000 0.55584  0.96072  0.38336  Biso   1.000  N
  H86      1.0000 0.64042  0.01880  0.50580  Biso   1.000  H
  O15      1.0000 0.79429  0.04449  0.64821  Biso   1.000  O
  C81      1.0000 0.84401  0.82398  0.27287  Biso   1.000  C
  H87      1.0000 0.92213  0.86058  0.46245  Biso   1.000  H
  C82      1.0000 0.95542  0.02528  0.69397  Biso   1.000  C
  H88      1.0000 0.55111  0.92482  0.37082  Biso   1.000  H
  C83      1.0000 0.47179  0.99620  0.31191  Biso   1.000  C
  C84      1.0000 0.83822  0.86889  0.18325  Biso   1.000  C
  C85      1.0000 0.91163  0.78069  0.31040  Biso   1.000  C
  H89      1.0000 0.78248  0.80610  0.21948  Biso   1.000  H
  N15      1.0000 0.96142  0.07031  0.74856  Biso   1.000  N
  H90      1.0000 0.00693  0.01561  0.70391  Biso   1.000  H
  C86      1.0000 0.39522  0.96059  0.29003  Biso   1.000  C
  H91      1.0000 0.48643  0.02871  0.36962  Biso   1.000  H
  C87      1.0000 0.42968  0.01669  0.17221  Biso   1.000  C
  N16      1.0000 0.78400  0.91420  0.15947  Biso   1.000  N
  H92      1.0000 0.90164  0.88260  0.23082  Biso   1.000  H
  C88      1.0000 0.80322  0.83799  0.05349  Biso   1.000  C
  C89      1.0000 0.88023  0.75198  0.18125  Biso   1.000  C
  H93      1.0000 0.91642  0.75310  0.36982  Biso   1.000  H
  H94      1.0000 0.97268  0.79759  0.35968  Biso   1.000  H
  H95      1.0000 0.92524  0.07588  0.76542  Biso   1.000  H
  C90      1.0000 0.02609  0.11211  0.78309  Biso   1.000  C
  H96      1.0000 0.37573  0.93039  0.22580  Biso   1.000  H
  H97      1.0000 0.41930  0.94411  0.37614  Biso   1.000  H
  C91      1.0000 0.31154  0.99901  0.23363  Biso   1.000  C
  H98      1.0000 0.40588  0.98451  0.10969  Biso   1.000  H
  C92      1.0000 0.35600  0.05482  0.12113  Biso   1.000  C
  N17      1.0000 0.50670  0.04482  0.18827  Biso   1.000  N
  C93      1.0000 0.81781  0.96072  0.22801  Biso   1.000  C
  H99      1.0000 0.72423  0.91139  0.09554  Biso   1.000  H
  H100     1.0000 0.74103  0.82349  0.00672  Biso   1.000  H
  C94      1.0000 0.86728  0.78858  0.08259  Biso   1.000  C
  H101     1.0000 0.79855  0.86471  0.99287  Biso   1.000  H
  H102     1.0000 0.92614  0.72360  0.20754  Biso   1.000  H
  H103     1.0000 0.82171  0.73261  0.13769  Biso   1.000  H
  C95      1.0000 0.98511  0.15751  0.67500  Biso   1.000  C
  H104     1.0000 0.07572  0.09340  0.79192  Biso   1.000  H
  C96      1.0000 0.07185  0.14132  0.91656  Biso   1.000  C
  H105     1.0000 0.26279  0.97720  0.21958  Biso   1.000  H
  H106     1.0000 0.33076  0.02871  0.29886  Biso   1.000  H
  C97      1.0000 0.27402  0.02470  0.09885  Biso   1.000  C
  H107     1.0000 0.33332  0.07039  0.03492  Biso   1.000  H
  H108     1.0000 0.37909  0.08559  0.18536  Biso   1.000  H
  H109     1.0000 0.51872  0.08001  0.21045  Biso   1.000  H
  C98      1.0000 0.55570  0.01661  0.16920  Biso   1.000  C
  H110     1.0000 0.88170  0.96621  0.28140  Biso   1.000  H
  C99      1.0000 0.77153  0.00149  0.23092  Biso   1.000  C
  H111     1.0000 0.92723  0.80308  0.11782  Biso   1.000  H
  H112     1.0000 0.83896  0.76809  0.99880  Biso   1.000  H
  H113     1.0000 0.94263  0.17961  0.67701  Biso   1.000  H
  N18      1.0000 0.92650  0.12930  0.53992  Biso   1.000  N
  C100     1.0000 0.04905  0.19539  0.69507  Biso   1.000  C
  H114     1.0000 0.02426  0.15780  0.91405  Biso   1.000  H
  H115     1.0000 0.10632  0.11401  0.99043  Biso   1.000  H
  C101     1.0000 0.13541  0.18539  0.94306  Biso   1.000  C
  H116     1.0000 0.24782  0.99550  0.03001  Biso   1.000  H
  H117     1.0000 0.22510  0.05172  0.06714  Biso   1.000  H
  H118     1.0000 0.53024  0.98282  0.12143  Biso   1.000  H
  C102     1.0000 0.63400  0.03011  0.20844  Biso   1.000  C
  C103     1.0000 0.67410  0.99190  0.17181  Biso   1.000  C
  C104     1.0000 0.82701  0.04870  0.32415  Biso   1.000  C
  H119     1.0000 0.95240  0.11781  0.50891  Biso   1.000  H
  C105     1.0000 0.83642  0.12099  0.46536  Biso   1.000  C
  C106     1.0000 0.09963  0.21951  0.83648  Biso   1.000  C
  H120     1.0000 0.01721  0.22488  0.62613  Biso   1.000  H
  H121     1.0000 0.09224  0.17631  0.69146  Biso   1.000  H
  H122     1.0000 0.19134  0.16780  0.97005  Biso   1.000  H
  H123     1.0000 0.15376  0.20811  0.01943  Biso   1.000  H
  C107     1.0000 0.68624  0.07650  0.29746  Biso   1.000  C
  O16      1.0000 0.63100  0.95510  0.09383  Biso   1.000  O
  O17      1.0000 0.90362  0.05688  0.36410  Biso   1.000  O
  C108     1.0000 0.78370  0.08522  0.35777  Biso   1.000  C
  H124     1.0000 0.80675  0.14132  0.48834  Biso   1.000  H
  H125     1.0000 0.15054  0.24248  0.85986  Biso   1.000  H
  H126     1.0000 0.05654  0.24492  0.82895  Biso   1.000  H
  O18      1.0000 0.65497  0.10641  0.33078  Biso   1.000  O
  O19      1.0000 0.34804  0.88929  0.62663  Biso   1.000  O
  C109     1.0000 0.27932  0.92048  0.55116  Biso   1.000  C
  C110     1.0000 0.19340  0.90879  0.52677  Biso   1.000  C
  C111     1.0000 0.28182  0.96951  0.49767  Biso   1.000  C
  C112     1.0000 0.20115  0.86769  0.61037  Biso   1.000  C
  C113     1.0000 0.11013  0.94089  0.43635  Biso   1.000  C
  C114     1.0000 0.20132  0.00471  0.40303  Biso   1.000  C
  C115     1.0000 0.36180  0.98529  0.53360  Biso   1.000  C
  N19      1.0000 0.13516  0.85319  0.60887  Biso   1.000  N
  H127     1.0000 0.25823  0.84931  0.67199  Biso   1.000  H
  O20      1.0000 0.04259  0.92581  0.41548  Biso   1.000  O
  C116     1.0000 0.12261  0.98641  0.38346  Biso   1.000  C
  O21      1.0000 0.20574  0.04449  0.35185  Biso   1.000  O
  N20      1.0000 0.44418  0.96072  0.61669  Biso   1.000  N
  H128     1.0000 0.35966  0.01880  0.49426  Biso   1.000  H
  C117     1.0000 0.15602  0.82398  0.72709  Biso   1.000  C
  H129     1.0000 0.07789  0.86058  0.53761  Biso   1.000  H
  C118     1.0000 0.04461  0.02528  0.30609  Biso   1.000  C
  H130     1.0000 0.44892  0.92482  0.62924  Biso   1.000  H
  C119     1.0000 0.52824  0.99620  0.68815  Biso   1.000  C
  C120     1.0000 0.08845  0.78069  0.68965  Biso   1.000  C
  C121     1.0000 0.16181  0.86889  0.81681  Biso   1.000  C
  H131     1.0000 0.21754  0.80610  0.78058  Biso   1.000  H
  H132     1.0000 0.99315  0.01561  0.29615  Biso   1.000  H
  N21      1.0000 0.03860  0.07031  0.25150  Biso   1.000  N
  C122     1.0000 0.57034  0.01669  0.82785  Biso   1.000  C
  C123     1.0000 0.60481  0.96059  0.71003  Biso   1.000  C
  H133     1.0000 0.51364  0.02871  0.63044  Biso   1.000  H
  C124     1.0000 0.11979  0.75198  0.81881  Biso   1.000  C
  H134     1.0000 0.08361  0.75310  0.63024  Biso   1.000  H
  H135     1.0000 0.02734  0.79759  0.64038  Biso   1.000  H
  C125     1.0000 0.19686  0.83799  0.94657  Biso   1.000  C
  N22      1.0000 0.21599  0.91420  0.84049  Biso   1.000  N
  H136     1.0000 0.09844  0.88260  0.76924  Biso   1.000  H
  C126     1.0000 0.97389  0.11211  0.21687  Biso   1.000  C
  H137     1.0000 0.07484  0.07588  0.23464  Biso   1.000  H
  N23      1.0000 0.49333  0.04482  0.81169  Biso   1.000  N
  H138     1.0000 0.59415  0.98451  0.89037  Biso   1.000  H
  C127     1.0000 0.64402  0.05482  0.87893  Biso   1.000  C
  H139     1.0000 0.62435  0.93039  0.77426  Biso   1.000  H
  H140     1.0000 0.58073  0.94411  0.62392  Biso   1.000  H
  C128     1.0000 0.68854  0.99901  0.76643  Biso   1.000  C
  C129     1.0000 0.13274  0.78858  0.91747  Biso   1.000  C
  H141     1.0000 0.07394  0.72360  0.79252  Biso   1.000  H
  H142     1.0000 0.17832  0.73261  0.86237  Biso   1.000  H
  H143     1.0000 0.25904  0.82349  0.99334  Biso   1.000  H
  H144     1.0000 0.20153  0.86471  0.00718  Biso   1.000  H
  C130     1.0000 0.18222  0.96072  0.77205  Biso   1.000  C
  H145     1.0000 0.27584  0.91139  0.90452  Biso   1.000  H
  C131     1.0000 0.01492  0.15751  0.32506  Biso   1.000  C
  H146     1.0000 0.92431  0.09340  0.20814  Biso   1.000  H
  C132     1.0000 0.92822  0.14132  0.08350  Biso   1.000  C
  C133     1.0000 0.44432  0.01661  0.83086  Biso   1.000  C
  H147     1.0000 0.48131  0.08001  0.78961  Biso   1.000  H
  C134     1.0000 0.72601  0.02470  0.90121  Biso   1.000  C
  H148     1.0000 0.66671  0.07039  0.96514  Biso   1.000  H
  H149     1.0000 0.62089  0.08559  0.81460  Biso   1.000  H
  H150     1.0000 0.73724  0.97720  0.78048  Biso   1.000  H
  H151     1.0000 0.66922  0.02871  0.70110  Biso   1.000  H
  H152     1.0000 0.07284  0.80308  0.88224  Biso   1.000  H
  H153     1.0000 0.16112  0.76809  0.00126  Biso   1.000  H
  H154     1.0000 0.11833  0.96621  0.71866  Biso   1.000  H
  C135     1.0000 0.22855  0.00149  0.76914  Biso   1.000  C
  N24      1.0000 0.07353  0.12930  0.46014  Biso   1.000  N
  C136     1.0000 0.95097  0.19539  0.30499  Biso   1.000  C
  H155     1.0000 0.05745  0.17961  0.32305  Biso   1.000  H
  H156     1.0000 0.97582  0.15780  0.08601  Biso   1.000  H
  H157     1.0000 0.89371  0.11401  0.00963  Biso   1.000  H
  C137     1.0000 0.86462  0.18539  0.05700  Biso   1.000  C
  C138     1.0000 0.36603  0.03011  0.79162  Biso   1.000  C
  H158     1.0000 0.46984  0.98282  0.87863  Biso   1.000  H
  H159     1.0000 0.75226  0.99550  0.97005  Biso   1.000  H
  H160     1.0000 0.77493  0.05172  0.93292  Biso   1.000  H
  C139     1.0000 0.32593  0.99190  0.82825  Biso   1.000  C
  C140     1.0000 0.17302  0.04870  0.67591  Biso   1.000  C
  C141     1.0000 0.16361  0.12099  0.53470  Biso   1.000  C
  H161     1.0000 0.04763  0.11781  0.49115  Biso   1.000  H
  C142     1.0000 0.90040  0.21951  0.16358  Biso   1.000  C
  H162     1.0000 0.98281  0.22488  0.37393  Biso   1.000  H
  H163     1.0000 0.90778  0.17631  0.30860  Biso   1.000  H
  H164     1.0000 0.84627  0.20811  0.98063  Biso   1.000  H
  H165     1.0000 0.80869  0.16780  0.03001  Biso   1.000  H
  C143     1.0000 0.31378  0.07650  0.70260  Biso   1.000  C
  O22      1.0000 0.36903  0.95510  0.90623  Biso   1.000  O
  O23      1.0000 0.09646  0.05688  0.63596  Biso   1.000  O
  C144     1.0000 0.21628  0.08522  0.64219  Biso   1.000  C
  H166     1.0000 0.19333  0.14132  0.51172  Biso   1.000  H
  H167     1.0000 0.84949  0.24248  0.14020  Biso   1.000  H
  H168     1.0000 0.94348  0.24492  0.17111  Biso   1.000  H
  O24      1.0000 0.34501  0.10641  0.66918  Biso   1.000  O
  Ne1      1.0000 0.26525  0.49595  0.39943  Biso   1.000  Ne
  He1      1.0000 0.36717  0.50619  0.47149  Biso   1.000  He
  He2      1.0000 0.22149  0.52998  0.42857  Biso   1.000  He
  He3      1.0000 0.22371  0.45338  0.32661  Biso   1.000  He
  Ar1      1.0000 0.26756  0.49789  0.39503  Biso   1.000  Ar
  Ne2      1.0000 0.73477  0.49595  0.60061  Biso   1.000  Ne
  He4      1.0000 0.77652  0.45306  0.67392  Biso   1.000  He
  He5      1.0000 0.65171  0.48204  0.58720  Biso   1.000  He
  Ar2      1.0000 0.73229  0.49819  0.60490  Biso   1.000  Ar
  Ne3      1.0000 0.23478  0.99595  0.60061  Biso   1.000  Ne
  He6      1.0000 0.27651  0.95306  0.67393  Biso   1.000  He
  He7      1.0000 0.15169  0.98203  0.58721  Biso   1.000  He
  Ar3      1.0000 0.23222  0.99815  0.60486  Biso   1.000  Ar
  Ne4      1.0000 0.76525  0.99595  0.39943  Biso   1.000  Ne
  He8      1.0000 0.86714  0.00617  0.47145  Biso   1.000  He
  He9      1.0000 0.72371  0.95338  0.32660  Biso   1.000  He
  Ar4      1.0000 0.76775  0.99819  0.39515  Biso   1.000  Ar
