data_image0
_cell_length_a       12.993
_cell_length_b       15.748
_cell_length_c       16.372
_cell_angle_alpha    104.52
_cell_angle_beta     106.1
_cell_angle_gamma    112.15

_symmetry_space_group_name_H-M    "P 1"
_symmetry_int_tables_number       1

loop_
  _symmetry_equiv_pos_as_xyz
  'x, y, z'

loop_
  _atom_site_label
  _atom_site_occupancy
  _atom_site_fract_x
  _atom_site_fract_y
  _atom_site_fract_z
  _atom_site_thermal_displace_type
  _atom_site_B_iso_or_equiv
  _atom_site_type_symbol
  C1       1.0000 0.43652  0.34640  0.43829  Biso   1.000  C
  O1       1.0000 0.37685  0.32239  0.34080  Biso   1.000  O
  C2       1.0000 0.43548  0.25352  0.44932  Biso   1.000  C
  H1       1.0000 0.52172  0.40079  0.46429  Biso   1.000  H
  H2       1.0000 0.39299  0.36920  0.47199  Biso   1.000  H
  C3       1.0000 0.43157  0.39375  0.31022  Biso   1.000  C
  C4       1.0000 0.52187  0.27456  0.54501  Biso   1.000  C
  H3       1.0000 0.35147  0.20580  0.43691  Biso   1.000  H
  H4       1.0000 0.45839  0.22131  0.40238  Biso   1.000  H
  C5       1.0000 0.54313  0.41358  0.30468  Biso   1.000  C
  C6       1.0000 0.37063  0.44370  0.28020  Biso   1.000  C
  C7       1.0000 0.54063  0.18500  0.54577  Biso   1.000  C
  H5       1.0000 0.60162  0.33334  0.56400  Biso   1.000  H
  H6       1.0000 0.48796  0.29069  0.59028  Biso   1.000  H
  C8       1.0000 0.61459  0.36452  0.34073  Biso   1.000  C
  C9       1.0000 0.59105  0.48461  0.27028  Biso   1.000  C
  H7       1.0000 0.29446  0.42987  0.28360  Biso   1.000  H
  C10      1.0000 0.41949  0.51274  0.24581  Biso   1.000  C
  C11      1.0000 0.62954  0.20149  0.63771  Biso   1.000  C
  H8       1.0000 0.57030  0.16728  0.49792  Biso   1.000  H
  H9       1.0000 0.46082  0.12732  0.52850  Biso   1.000  H
  C12      1.0000 0.57011  0.26270  0.28977  Biso   1.000  C
  C13      1.0000 0.71918  0.42428  0.42380  Biso   1.000  C
  C14      1.0000 0.53066  0.53586  0.24012  Biso   1.000  C
  H10      1.0000 0.66733  0.49890  0.26703  Biso   1.000  H
  H11      1.0000 0.37588  0.54552  0.22528  Biso   1.000  H
  C15      1.0000 0.64102  0.10911  0.63431  Biso   1.000  C
  H12      1.0000 0.60139  0.22039  0.68639  Biso   1.000  H
  H13      1.0000 0.71060  0.25739  0.65449  Biso   1.000  H
  N1       1.0000 0.61923  0.20553  0.31813  Biso   1.000  N
  C16      1.0000 0.47347  0.20027  0.20081  Biso   1.000  C
  N2       1.0000 0.78649  0.38964  0.47407  Biso   1.000  N
  C17      1.0000 0.76830  0.53046  0.47199  Biso   1.000  C
  C18      1.0000 0.59167  0.61540  0.20608  Biso   1.000  C
  O2       1.0000 0.75177  0.13726  0.71114  Biso   1.000  O
  H14      1.0000 0.64386  0.07762  0.57503  Biso   1.000  H
  H15      1.0000 0.56957  0.06022  0.63827  Biso   1.000  H
  C19      1.0000 0.55800  0.11081  0.25004  Biso   1.000  C
  H16      1.0000 0.67198  0.22579  0.37298  Biso   1.000  H
  C20      1.0000 0.46720  0.10888  0.17550  Biso   1.000  C
  H17      1.0000 0.42177  0.21901  0.16489  Biso   1.000  H
  C21      1.0000 0.87377  0.47217  0.55270  Biso   1.000  C
  H18      1.0000 0.73858  0.57139  0.45147  Biso   1.000  H
  C22      1.0000 0.86318  0.56040  0.55062  Biso   1.000  C
  C23      1.0000 0.63068  0.57180  0.13202  Biso   1.000  C
  C24      1.0000 0.50491  0.65227  0.16288  Biso   1.000  C
  C25      1.0000 0.70425  0.70549  0.28887  Biso   1.000  C
  C26      1.0000 0.80192  0.07378  0.69762  Biso   1.000  C
  C27      1.0000 0.57821  0.03062  0.25614  Biso   1.000  C
  H19      1.0000 0.41215  0.05344  0.11822  Biso   1.000  H
  C28      1.0000 0.95404  0.47290  0.63147  Biso   1.000  C
  H20      1.0000 0.91430  0.62672  0.59652  Biso   1.000  H
  H21      1.0000 0.55902  0.51330  0.08009  Biso   1.000  H
  H22      1.0000 0.66760  0.62249  0.10949  Biso   1.000  H
  H23      1.0000 0.69028  0.55191  0.15941  Biso   1.000  H
  H24      1.0000 0.48117  0.68241  0.20947  Biso   1.000  H
  H25      1.0000 0.54637  0.70232  0.14138  Biso   1.000  H
  H26      1.0000 0.43177  0.59566  0.11039  Biso   1.000  H
  H27      1.0000 0.76050  0.68352  0.31778  Biso   1.000  H
  H28      1.0000 0.74547  0.75558  0.26730  Biso   1.000  H
  H29      1.0000 0.67865  0.73498  0.33428  Biso   1.000  H
  C29      1.0000 0.85696  0.06932  0.63584  Biso   1.000  C
  C30      1.0000 0.80103  0.01837  0.75143  Biso   1.000  C
  C31      1.0000 0.65391  0.03029  0.33532  Biso   1.000  C
  C32      1.0000 0.51057  0.93621  0.17016  Biso   1.000  C
  C33      1.0000 0.95949  0.38974  0.64326  Biso   1.000  C
  C34      1.0000 0.02450  0.56929  0.71586  Biso   1.000  C
  C35      1.0000 0.84972  0.12543  0.57413  Biso   1.000  C
  C36      1.0000 0.91129  0.00778  0.63064  Biso   1.000  C
  H30      1.0000 0.76493  0.02324  0.79442  Biso   1.000  H
  C37      1.0000 0.85290  0.95555  0.74262  Biso   1.000  C
  N3       1.0000 0.72846  0.10926  0.41985  Biso   1.000  N
  C38      1.0000 0.65465  0.93955  0.34177  Biso   1.000  C
  C39      1.0000 0.39479  0.86099  0.15040  Biso   1.000  C
  C40      1.0000 0.56676  0.92018  0.11143  Biso   1.000  C
  N4       1.0000 0.89073  0.29300  0.57829  Biso   1.000  N
  C41      1.0000 0.02910  0.38723  0.72660  Biso   1.000  C
  C42      1.0000 0.97731  0.58249  0.78138  Biso   1.000  C
  C43      1.0000 0.13100  0.64804  0.72758  Biso   1.000  C
  C44      1.0000 0.77248  0.07080  0.47893  Biso   1.000  C
  C45      1.0000 0.90840  0.22927  0.61816  Biso   1.000  C
  H31      1.0000 0.95107  0.00526  0.59008  Biso   1.000  H
  C46      1.0000 0.90936  0.94959  0.68292  Biso   1.000  C
  H32      1.0000 0.84937  0.91609  0.77819  Biso   1.000  H
  C47      1.0000 0.72468  0.96394  0.43011  Biso   1.000  C
  H33      1.0000 0.61297  0.87527  0.29247  Biso   1.000  H
  H34      1.0000 0.35513  0.87148  0.18971  Biso   1.000  H
  C48      1.0000 0.33832  0.77212  0.07440  Biso   1.000  C
  C49      1.0000 0.51027  0.83143  0.03411  Biso   1.000  C
  H35      1.0000 0.64526  0.97094  0.12453  Biso   1.000  H
  H36      1.0000 0.84301  0.27567  0.52497  Biso   1.000  H
  C50      1.0000 0.99680  0.29034  0.71177  Biso   1.000  C
  H37      1.0000 0.08770  0.44359  0.78249  Biso   1.000  H
  H38      1.0000 0.90531  0.52831  0.77417  Biso   1.000  H
  C51      1.0000 0.03200  0.67241  0.85710  Biso   1.000  C
  C52      1.0000 0.18889  0.73857  0.80392  Biso   1.000  C
  H39      1.0000 0.16444  0.64007  0.68327  Biso   1.000  H
  C53      1.0000 0.96922  0.88252  0.67301  Biso   1.000  C
  H40      1.0000 0.74024  0.92000  0.45590  Biso   1.000  H
  H41      1.0000 0.25998  0.72091  0.06102  Biso   1.000  H
  C54      1.0000 0.39741  0.75853  0.01768  Biso   1.000  C
  H42      1.0000 0.54852  0.82112  0.99362  Biso   1.000  H
  H43      1.0000 0.02773  0.26709  0.75600  Biso   1.000  H
  H44      1.0000 0.99861  0.68100  0.90141  Biso   1.000  H
  C55      1.0000 0.13699  0.74904  0.86549  Biso   1.000  C
  H45      1.0000 0.26304  0.79200  0.81321  Biso   1.000  H
  C56      1.0000 0.93978  0.81325  0.72342  Biso   1.000  C
  C57      1.0000 0.92572  0.81930  0.56997  Biso   1.000  C
  C58      1.0000 0.10785  0.94929  0.71613  Biso   1.000  C
  N5       1.0000 0.33809  0.66267  0.93739  Biso   1.000  N
  N6       1.0000 0.19363  0.84638  0.94412  Biso   1.000  N
  H46      1.0000 0.85139  0.76871  0.69610  Biso   1.000  H
  H47      1.0000 0.98168  0.77328  0.71738  Biso   1.000  H
  H48      1.0000 0.96730  0.85330  0.78922  Biso   1.000  H
  H49      1.0000 0.83678  0.77759  0.54202  Biso   1.000  H
  H50      1.0000 0.94870  0.86350  0.53807  Biso   1.000  H
  H51      1.0000 0.96409  0.77641  0.56428  Biso   1.000  H
  H52      1.0000 0.14744  0.90752  0.70941  Biso   1.000  H
  H53      1.0000 0.12893  0.99410  0.68438  Biso   1.000  H
  H54      1.0000 0.13581  0.98889  0.78201  Biso   1.000  H
  O3       1.0000 0.24157  0.59617  0.92719  Biso   1.000  O
  O4       1.0000 0.38827  0.65425  0.88517  Biso   1.000  O
  O5       1.0000 0.28871  0.91387  0.95327  Biso   1.000  O
  O6       1.0000 0.14345  0.85542  0.99682  Biso   1.000  O
  C59      1.0000 0.56355  0.65362  0.56172  Biso   1.000  C
  O7       1.0000 0.62313  0.67763  0.65921  Biso   1.000  O
  C60      1.0000 0.56451  0.74650  0.55069  Biso   1.000  C
  H55      1.0000 0.47835  0.59923  0.53571  Biso   1.000  H
  H56      1.0000 0.60700  0.63082  0.52802  Biso   1.000  H
  C61      1.0000 0.56842  0.60627  0.68979  Biso   1.000  C
  C62      1.0000 0.47812  0.72546  0.45500  Biso   1.000  C
  H57      1.0000 0.64852  0.79422  0.56310  Biso   1.000  H
  H58      1.0000 0.54160  0.77871  0.59763  Biso   1.000  H
  C63      1.0000 0.45693  0.58644  0.69533  Biso   1.000  C
  C64      1.0000 0.62944  0.55632  0.71981  Biso   1.000  C
  C65      1.0000 0.45940  0.81499  0.45417  Biso   1.000  C
  H59      1.0000 0.39837  0.66668  0.43600  Biso   1.000  H
  H60      1.0000 0.51203  0.70933  0.40972  Biso   1.000  H
  C66      1.0000 0.38540  0.63550  0.65928  Biso   1.000  C
  C67      1.0000 0.40902  0.51541  0.72973  Biso   1.000  C
  H61      1.0000 0.70550  0.57008  0.71641  Biso   1.000  H
  C68      1.0000 0.58050  0.48728  0.75420  Biso   1.000  C
  C69      1.0000 0.37052  0.79853  0.36230  Biso   1.000  C
  H62      1.0000 0.42966  0.83267  0.50208  Biso   1.000  H
  H63      1.0000 0.53917  0.87270  0.47151  Biso   1.000  H
  C70      1.0000 0.28081  0.57574  0.57621  Biso   1.000  C
  C71      1.0000 0.42988  0.73732  0.71024  Biso   1.000  C
  C72      1.0000 0.46929  0.46413  0.75982  Biso   1.000  C
  H64      1.0000 0.33274  0.50111  0.73298  Biso   1.000  H
  H65      1.0000 0.62411  0.45450  0.77473  Biso   1.000  H
  C73      1.0000 0.35905  0.89091  0.36569  Biso   1.000  C
  H66      1.0000 0.39860  0.77963  0.31362  Biso   1.000  H
  H67      1.0000 0.28939  0.74263  0.34552  Biso   1.000  H
  N7       1.0000 0.21347  0.61031  0.52594  Biso   1.000  N
  C74      1.0000 0.23169  0.46956  0.52802  Biso   1.000  C
  N8       1.0000 0.38075  0.79449  0.68188  Biso   1.000  N
  C75      1.0000 0.52652  0.79975  0.79920  Biso   1.000  C
  C76      1.0000 0.40829  0.38455  0.79393  Biso   1.000  C
  O8       1.0000 0.24822  0.86276  0.28887  Biso   1.000  O
  H68      1.0000 0.35621  0.92240  0.42498  Biso   1.000  H
  H69      1.0000 0.43038  0.93977  0.36167  Biso   1.000  H
  C77      1.0000 0.12622  0.52785  0.44731  Biso   1.000  C
  C78      1.0000 0.13678  0.43955  0.44939  Biso   1.000  C
  H70      1.0000 0.26137  0.42860  0.54847  Biso   1.000  H
  C79      1.0000 0.44206  0.88921  0.74997  Biso   1.000  C
  H71      1.0000 0.32801  0.77423  0.62703  Biso   1.000  H
  C80      1.0000 0.53279  0.89114  0.82451  Biso   1.000  C
  H72      1.0000 0.57822  0.78100  0.83512  Biso   1.000  H
  C81      1.0000 0.36931  0.42822  0.86799  Biso   1.000  C
  C82      1.0000 0.49512  0.34768  0.83713  Biso   1.000  C
  C83      1.0000 0.29570  0.29450  0.71107  Biso   1.000  C
  C84      1.0000 0.19814  0.92624  0.30239  Biso   1.000  C
  C85      1.0000 0.04591  0.52709  0.36847  Biso   1.000  C
  H73      1.0000 0.08569  0.37330  0.40348  Biso   1.000  H
  C86      1.0000 0.42178  0.96940  0.74387  Biso   1.000  C
  H74      1.0000 0.58792  0.94658  0.88179  Biso   1.000  H
  H75      1.0000 0.44105  0.48672  0.91992  Biso   1.000  H
  H76      1.0000 0.33239  0.37752  0.89052  Biso   1.000  H
  H77      1.0000 0.30971  0.44811  0.84060  Biso   1.000  H
  H78      1.0000 0.51878  0.31758  0.79047  Biso   1.000  H
  H79      1.0000 0.45362  0.29770  0.85863  Biso   1.000  H
  H80      1.0000 0.56819  0.40429  0.88962  Biso   1.000  H
  H81      1.0000 0.23949  0.31650  0.68223  Biso   1.000  H
  H82      1.0000 0.25449  0.24438  0.73271  Biso   1.000  H
  H83      1.0000 0.32134  0.26504  0.66573  Biso   1.000  H
  C87      1.0000 0.14311  0.93070  0.36417  Biso   1.000  C
  C88      1.0000 0.19896  0.98165  0.24858  Biso   1.000  C
  C89      1.0000 0.97554  0.43066  0.28415  Biso   1.000  C
  C90      1.0000 0.04050  0.61028  0.35675  Biso   1.000  C
  C91      1.0000 0.34608  0.96973  0.66468  Biso   1.000  C
  C92      1.0000 0.48939  0.06374  0.82985  Biso   1.000  C
  C93      1.0000 0.15027  0.87459  0.42588  Biso   1.000  C
  C94      1.0000 0.08870  0.99224  0.36937  Biso   1.000  C
  H84      1.0000 0.23505  0.97678  0.20559  Biso   1.000  H
  C95      1.0000 0.14709  0.04447  0.25739  Biso   1.000  C
  C96      1.0000 0.02268  0.41753  0.21863  Biso   1.000  C
  C97      1.0000 0.86900  0.35188  0.27236  Biso   1.000  C
  N9       1.0000 0.10923  0.70695  0.42172  Biso   1.000  N
  C98      1.0000 0.97089  0.61279  0.27340  Biso   1.000  C
  N10      1.0000 0.27149  0.89069  0.58016  Biso   1.000  N
  C99      1.0000 0.34539  0.06040  0.65824  Biso   1.000  C
  C100     1.0000 0.60517  0.13896  0.84961  Biso   1.000  C
  C101     1.0000 0.43322  0.07984  0.88858  Biso   1.000  C
  C102     1.0000 0.09159  0.77075  0.38185  Biso   1.000  C
  C103     1.0000 0.22748  0.92919  0.52101  Biso   1.000  C
  H85      1.0000 0.04889  0.99469  0.40993  Biso   1.000  H
  C104     1.0000 0.09063  0.05043  0.31709  Biso   1.000  C
  H86      1.0000 0.15062  0.08393  0.22182  Biso   1.000  H
  H87      1.0000 0.09472  0.47168  0.22577  Biso   1.000  H
  C105     1.0000 0.96798  0.32761  0.14291  Biso   1.000  C
  C106     1.0000 0.81110  0.26145  0.19609  Biso   1.000  C
  H88      1.0000 0.83551  0.35992  0.31667  Biso   1.000  H
  H89      1.0000 0.15699  0.72426  0.47497  Biso   1.000  H
  C107     1.0000 0.00323  0.70961  0.28824  Biso   1.000  C
  H90      1.0000 0.91229  0.55643  0.21752  Biso   1.000  H
  C108     1.0000 0.27531  0.03607  0.56990  Biso   1.000  C
  H91      1.0000 0.38698  0.12472  0.70747  Biso   1.000  H
  H92      1.0000 0.64490  0.12847  0.81030  Biso   1.000  H
  C109     1.0000 0.66172  0.22783  0.92561  Biso   1.000  C
  C110     1.0000 0.48972  0.16859  0.96589  Biso   1.000  C
  H93      1.0000 0.35481  0.02908  0.87548  Biso   1.000  H
  C111     1.0000 0.03085  0.11750  0.32700  Biso   1.000  C
  H94      1.0000 0.00138  0.31902  0.09860  Biso   1.000  H
  C112     1.0000 0.86296  0.25095  0.13445  Biso   1.000  C
  H95      1.0000 0.73703  0.20802  0.18680  Biso   1.000  H
  H96      1.0000 0.97234  0.73293  0.24400  Biso   1.000  H
  H97      1.0000 0.25983  0.08002  0.54410  Biso   1.000  H
  H98      1.0000 0.74001  0.27911  0.93899  Biso   1.000  H
  C113     1.0000 0.60258  0.24148  0.98233  Biso   1.000  C
  H99      1.0000 0.45147  0.17890  0.00639  Biso   1.000  H
  C114     1.0000 0.89222  0.05073  0.28387  Biso   1.000  C
  C115     1.0000 0.06021  0.18677  0.27659  Biso   1.000  C
  C116     1.0000 0.07431  0.18069  0.42997  Biso   1.000  C
  N11      1.0000 0.80632  0.15357  0.05589  Biso   1.000  N
  N12      1.0000 0.66190  0.33735  0.06262  Biso   1.000  N
  H100     1.0000 0.85262  0.09250  0.29060  Biso   1.000  H
  H101     1.0000 0.87114  0.00592  0.31563  Biso   1.000  H
  H102     1.0000 0.86418  0.01112  0.21800  Biso   1.000  H
  H103     1.0000 0.14860  0.23131  0.30391  Biso   1.000  H
  H104     1.0000 0.01831  0.22673  0.28263  Biso   1.000  H
  H105     1.0000 0.03268  0.14672  0.21079  Biso   1.000  H
  H106     1.0000 0.16318  0.22236  0.45798  Biso   1.000  H
  H107     1.0000 0.05125  0.13649  0.46187  Biso   1.000  H
  H108     1.0000 0.03590  0.22361  0.43573  Biso   1.000  H
  O9       1.0000 0.71125  0.08608  0.04673  Biso   1.000  O
  O10      1.0000 0.85658  0.14453  0.00319  Biso   1.000  O
  O11      1.0000 0.75850  0.40385  0.07282  Biso   1.000  O
  O12      1.0000 0.61180  0.34577  0.11483  Biso   1.000  O
