data_image0
_cell_length_a       20.03
_cell_length_b       16.211
_cell_length_c       18.486
_cell_angle_alpha    90
_cell_angle_beta     120.2
_cell_angle_gamma    90

_symmetry_space_group_name_H-M    "P 1"
_symmetry_int_tables_number       1

loop_
  _symmetry_equiv_pos_as_xyz
  'x, y, z'

loop_
  _atom_site_label
  _atom_site_occupancy
  _atom_site_fract_x
  _atom_site_fract_y
  _atom_site_fract_z
  _atom_site_thermal_displace_type
  _atom_site_B_iso_or_equiv
  _atom_site_type_symbol
  C1       1.0000 0.18004  0.42052  0.44890  Biso   1.000  C
  P1       1.0000 0.10000  0.47085  0.45146  Biso   1.000  P
  C2       1.0000 0.18654  0.41003  0.37923  Biso   1.000  C
  C3       1.0000 0.23715  0.38758  0.52363  Biso   1.000  C
  C4       1.0000 0.06961  0.55709  0.37610  Biso   1.000  C
  C5       1.0000 0.02147  0.39751  0.39607  Biso   1.000  C
  H1       1.0000 0.14813  0.43292  0.32659  Biso   1.000  H
  C6       1.0000 0.24853  0.36629  0.38424  Biso   1.000  C
  C7       1.0000 0.29954  0.34581  0.52982  Biso   1.000  C
  H2       1.0000 0.23303  0.39418  0.57282  Biso   1.000  H
  C8       1.0000 0.10754  0.63574  0.42048  Biso   1.000  C
  H3       1.0000 0.08349  0.54543  0.33448  Biso   1.000  H
  H4       1.0000 0.01452  0.56320  0.34831  Biso   1.000  H
  C9       1.0000 0.02765  0.32188  0.36690  Biso   1.000  C
  C10      1.0000 0.95102  0.41638  0.38950  Biso   1.000  C
  H5       1.0000 0.25214  0.35803  0.33492  Biso   1.000  H
  C11      1.0000 0.30316  0.33582  0.45772  Biso   1.000  C
  H6       1.0000 0.33913  0.32429  0.58253  Biso   1.000  H
  O1       1.0000 0.07254  0.70323  0.36596  Biso   1.000  O
  H7       1.0000 0.10246  0.64203  0.46911  Biso   1.000  H
  H8       1.0000 0.16164  0.63401  0.43851  Biso   1.000  H
  H9       1.0000 0.07533  0.30658  0.37003  Biso   1.000  H
  C12      1.0000 0.96672  0.26753  0.33310  Biso   1.000  C
  C13      1.0000 0.89050  0.36228  0.35539  Biso   1.000  C
  H10      1.0000 0.94464  0.46882  0.40953  Biso   1.000  H
  H11      1.0000 0.34585  0.30634  0.46041  Biso   1.000  H
  C14      1.0000 0.09511  0.77904  0.40533  Biso   1.000  C
  H12      1.0000 0.97284  0.21448  0.31401  Biso   1.000  H
  C15      1.0000 0.89793  0.28783  0.32622  Biso   1.000  C
  H13      1.0000 0.84261  0.37703  0.35182  Biso   1.000  H
  C16      1.0000 0.05223  0.81414  0.43813  Biso   1.000  C
  C17      1.0000 0.15696  0.81994  0.40746  Biso   1.000  C
  H14      1.0000 0.85511  0.25020  0.30131  Biso   1.000  H
  C18      1.0000 0.98525  0.76991  0.43700  Biso   1.000  C
  C19      1.0000 0.07616  0.89032  0.47656  Biso   1.000  C
  C20      1.0000 0.20701  0.78249  0.37610  Biso   1.000  C
  C21      1.0000 0.17660  0.89661  0.44514  Biso   1.000  C
  C22      1.0000 0.92215  0.73419  0.35614  Biso   1.000  C
  H15      1.0000 0.00633  0.72562  0.47681  Biso   1.000  H
  H16      1.0000 0.96154  0.80778  0.45722  Biso   1.000  H
  C23      1.0000 0.13710  0.93134  0.48019  Biso   1.000  C
  H17      1.0000 0.04884  0.91512  0.50128  Biso   1.000  H
  C24      1.0000 0.16964  0.73882  0.29305  Biso   1.000  C
  H18      1.0000 0.23845  0.82592  0.37373  Biso   1.000  H
  H19      1.0000 0.24136  0.74400  0.41773  Biso   1.000  H
  H20      1.0000 0.21881  0.92635  0.44671  Biso   1.000  H
  C25      1.0000 0.88757  0.77472  0.28047  Biso   1.000  C
  C26      1.0000 0.89481  0.65610  0.35802  Biso   1.000  C
  H21      1.0000 0.15245  0.98415  0.50723  Biso   1.000  H
  C27      1.0000 0.11244  0.77472  0.21950  Biso   1.000  C
  C28      1.0000 0.19435  0.66109  0.28723  Biso   1.000  C
  C29      1.0000 0.83039  0.73882  0.20699  Biso   1.000  C
  O2       1.0000 0.91349  0.85393  0.27608  Biso   1.000  O
  C30      1.0000 0.83722  0.61983  0.28729  Biso   1.000  C
  H22      1.0000 0.91689  0.62680  0.41009  Biso   1.000  H
  C31      1.0000 0.07794  0.73419  0.14389  Biso   1.000  C
  O3       1.0000 0.08654  0.85393  0.22395  Biso   1.000  O
  C32      1.0000 0.16279  0.61983  0.21268  Biso   1.000  C
  H23      1.0000 0.23466  0.63531  0.33673  Biso   1.000  H
  C33      1.0000 0.79300  0.78249  0.12387  Biso   1.000  C
  C34      1.0000 0.80573  0.66109  0.21281  Biso   1.000  C
  C35      1.0000 0.87763  0.91709  0.29230  Biso   1.000  C
  H24      1.0000 0.81902  0.56579  0.28992  Biso   1.000  H
  C36      1.0000 0.01478  0.76991  0.06303  Biso   1.000  C
  C37      1.0000 0.10522  0.65610  0.14202  Biso   1.000  C
  C38      1.0000 0.12245  0.91709  0.20774  Biso   1.000  C
  H25      1.0000 0.18102  0.56579  0.21011  Biso   1.000  H
  C39      1.0000 0.84310  0.81994  0.09251  Biso   1.000  C
  H26      1.0000 0.76158  0.82592  0.12631  Biso   1.000  H
  H27      1.0000 0.75868  0.74400  0.08231  Biso   1.000  H
  H28      1.0000 0.76543  0.63531  0.16330  Biso   1.000  H
  C40      1.0000 0.91220  0.99759  0.28760  Biso   1.000  C
  H29      1.0000 0.88412  0.91043  0.34712  Biso   1.000  H
  H30      1.0000 0.82331  0.91660  0.25218  Biso   1.000  H
  C41      1.0000 0.94781  0.81414  0.06190  Biso   1.000  C
  H31      1.0000 0.03850  0.80778  0.04281  Biso   1.000  H
  H32      1.0000 0.99371  0.72562  0.02322  Biso   1.000  H
  H33      1.0000 0.08311  0.62680  0.08988  Biso   1.000  H
  C42      1.0000 0.08784  0.99759  0.21243  Biso   1.000  C
  H34      1.0000 0.11592  0.91043  0.15291  Biso   1.000  H
  H35      1.0000 0.17669  0.91660  0.24779  Biso   1.000  H
  C43      1.0000 0.90492  0.77904  0.09470  Biso   1.000  C
  C44      1.0000 0.82344  0.89661  0.05489  Biso   1.000  C
  H36      1.0000 0.94322  0.98569  0.26269  Biso   1.000  H
  C45      1.0000 0.88113  0.04818  0.25831  Biso   1.000  C
  H37      1.0000 0.94741  0.01382  0.34431  Biso   1.000  H
  C46      1.0000 0.92393  0.89032  0.02347  Biso   1.000  C
  H38      1.0000 0.05679  0.98569  0.23728  Biso   1.000  H
  C47      1.0000 0.11891  0.04818  0.24172  Biso   1.000  C
  H39      1.0000 0.05262  0.01382  0.15572  Biso   1.000  H
  O4       1.0000 0.92749  0.70323  0.13407  Biso   1.000  O
  H40      1.0000 0.78122  0.92635  0.05333  Biso   1.000  H
  C48      1.0000 0.86290  0.93134  0.01978  Biso   1.000  C
  H41      1.0000 0.91463  0.08951  0.25649  Biso   1.000  H
  H42      1.0000 0.85710  0.06921  0.28829  Biso   1.000  H
  H43      1.0000 0.84209  0.03399  0.20229  Biso   1.000  H
  H44      1.0000 0.95129  0.91512  0.99875  Biso   1.000  H
  H45      1.0000 0.08542  0.08951  0.24348  Biso   1.000  H
  H46      1.0000 0.14290  0.06921  0.21168  Biso   1.000  H
  H47      1.0000 0.15792  0.03399  0.29768  Biso   1.000  H
  C49      1.0000 0.89247  0.63574  0.07949  Biso   1.000  C
  H48      1.0000 0.84768  0.98415  0.99280  Biso   1.000  H
  C50      1.0000 0.93039  0.55709  0.12387  Biso   1.000  C
  H49      1.0000 0.89763  0.64203  0.03092  Biso   1.000  H
  H50      1.0000 0.83840  0.63401  0.06153  Biso   1.000  H
  P2       1.0000 0.90000  0.47085  0.04851  Biso   1.000  P
  H51      1.0000 0.91652  0.54543  0.16549  Biso   1.000  H
  H52      1.0000 0.98551  0.56320  0.15172  Biso   1.000  H
  C51      1.0000 0.97854  0.39751  0.10390  Biso   1.000  C
  C52      1.0000 0.81997  0.42052  0.05107  Biso   1.000  C
  C53      1.0000 0.97244  0.32188  0.13313  Biso   1.000  C
  C54      1.0000 0.04899  0.41638  0.11047  Biso   1.000  C
  C55      1.0000 0.76298  0.38758  0.97640  Biso   1.000  C
  C56      1.0000 0.81349  0.41003  0.12080  Biso   1.000  C
  C57      1.0000 0.03331  0.26753  0.16693  Biso   1.000  C
  H53      1.0000 0.92471  0.30658  0.13000  Biso   1.000  H
  C58      1.0000 0.10951  0.36228  0.14458  Biso   1.000  C
  H54      1.0000 0.05540  0.46882  0.09051  Biso   1.000  H
  C59      1.0000 0.70055  0.34581  0.97021  Biso   1.000  C
  H55      1.0000 0.76706  0.39418  0.92721  Biso   1.000  H
  H56      1.0000 0.85188  0.43292  0.17337  Biso   1.000  H
  C60      1.0000 0.75151  0.36629  0.11579  Biso   1.000  C
  C61      1.0000 0.10211  0.28783  0.17381  Biso   1.000  C
  H57      1.0000 0.02720  0.21448  0.18602  Biso   1.000  H
  H58      1.0000 0.15742  0.37703  0.14821  Biso   1.000  H
  H59      1.0000 0.66095  0.32429  0.91751  Biso   1.000  H
  C62      1.0000 0.69693  0.33582  0.04231  Biso   1.000  C
  H60      1.0000 0.74790  0.35803  0.16511  Biso   1.000  H
  H61      1.0000 0.14493  0.25020  0.19872  Biso   1.000  H
  H62      1.0000 0.65419  0.30634  0.03962  Biso   1.000  H
  C63      1.0000 0.32347  0.60342  0.55492  Biso   1.000  C
  C64      1.0000 0.36294  0.56869  0.51981  Biso   1.000  C
  C65      1.0000 0.34313  0.68009  0.59254  Biso   1.000  C
  H63      1.0000 0.28123  0.57368  0.55330  Biso   1.000  H
  H64      1.0000 0.34767  0.51588  0.49283  Biso   1.000  H
  C66      1.0000 0.42396  0.60971  0.52350  Biso   1.000  C
  C67      1.0000 0.29309  0.71754  0.62390  Biso   1.000  C
  C68      1.0000 0.40501  0.72099  0.59473  Biso   1.000  C
  H65      1.0000 0.45125  0.58491  0.49872  Biso   1.000  H
  C69      1.0000 0.44787  0.68589  0.56187  Biso   1.000  C
  C70      1.0000 0.33043  0.76121  0.70702  Biso   1.000  C
  H66      1.0000 0.26167  0.67411  0.62634  Biso   1.000  H
  H67      1.0000 0.25876  0.75603  0.58234  Biso   1.000  H
  O5       1.0000 0.42750  0.79680  0.63404  Biso   1.000  O
  C71      1.0000 0.51479  0.73012  0.56300  Biso   1.000  C
  C72      1.0000 0.38765  0.72531  0.78050  Biso   1.000  C
  C73      1.0000 0.30577  0.83894  0.71284  Biso   1.000  C
  C74      1.0000 0.39250  0.86429  0.57952  Biso   1.000  C
  C75      1.0000 0.57797  0.76584  0.64393  Biso   1.000  C
  H68      1.0000 0.49371  0.77441  0.52319  Biso   1.000  H
  H69      1.0000 0.53853  0.69218  0.54284  Biso   1.000  H
  O6       1.0000 0.41350  0.64610  0.77605  Biso   1.000  O
  C76      1.0000 0.42216  0.76584  0.85611  Biso   1.000  C
  C77      1.0000 0.33725  0.88020  0.78732  Biso   1.000  C
  H70      1.0000 0.26546  0.86472  0.66333  Biso   1.000  H
  H71      1.0000 0.39764  0.85800  0.53089  Biso   1.000  H
  H72      1.0000 0.33845  0.86602  0.56150  Biso   1.000  H
  C78      1.0000 0.43043  0.94288  0.62390  Biso   1.000  C
  C79      1.0000 0.61247  0.72531  0.71954  Biso   1.000  C
  C80      1.0000 0.60523  0.84393  0.64199  Biso   1.000  C
  C81      1.0000 0.37767  0.58294  0.79233  Biso   1.000  C
  C82      1.0000 0.39485  0.84393  0.85805  Biso   1.000  C
  C83      1.0000 0.48534  0.73012  0.93704  Biso   1.000  C
  H73      1.0000 0.31905  0.93424  0.78995  Biso   1.000  H
  H74      1.0000 0.41655  0.95460  0.66552  Biso   1.000  H
  H75      1.0000 0.48552  0.93683  0.65169  Biso   1.000  H
  P3       1.0000 0.40004  0.02912  0.54854  Biso   1.000  P
  O7       1.0000 0.58663  0.64610  0.72398  Biso   1.000  O
  C84      1.0000 0.66965  0.76121  0.79302  Biso   1.000  C
  H76      1.0000 0.58315  0.87323  0.58991  Biso   1.000  H
  C85      1.0000 0.66283  0.88020  0.71271  Biso   1.000  C
  C86      1.0000 0.41228  0.50244  0.78763  Biso   1.000  C
  H77      1.0000 0.38417  0.58960  0.84709  Biso   1.000  H
  H78      1.0000 0.32335  0.58343  0.75221  Biso   1.000  H
  H79      1.0000 0.41698  0.87323  0.91012  Biso   1.000  H
  C87      1.0000 0.55226  0.68589  0.93816  Biso   1.000  C
  H80      1.0000 0.50636  0.77441  0.97684  Biso   1.000  H
  H81      1.0000 0.46157  0.69218  0.95725  Biso   1.000  H
  C88      1.0000 0.32000  0.07951  0.55111  Biso   1.000  C
  C89      1.0000 0.47857  0.10246  0.60393  Biso   1.000  C
  C90      1.0000 0.62246  0.58294  0.70771  Biso   1.000  C
  C91      1.0000 0.69436  0.83894  0.78719  Biso   1.000  C
  C92      1.0000 0.70704  0.71754  0.87614  Biso   1.000  C
  H82      1.0000 0.68105  0.93424  0.71015  Biso   1.000  H
  C93      1.0000 0.38116  0.45179  0.75834  Biso   1.000  C
  H83      1.0000 0.44745  0.48621  0.84434  Biso   1.000  H
  H84      1.0000 0.44326  0.51428  0.76272  Biso   1.000  H
  C94      1.0000 0.57619  0.60971  0.97659  Biso   1.000  C
  C95      1.0000 0.59512  0.72099  0.90530  Biso   1.000  C
  C96      1.0000 0.31353  0.09000  0.62083  Biso   1.000  C
  C97      1.0000 0.26297  0.11239  0.47644  Biso   1.000  C
  C98      1.0000 0.47244  0.17809  0.63310  Biso   1.000  C
  C99      1.0000 0.54902  0.08359  0.61050  Biso   1.000  C
  C100     1.0000 0.58784  0.50244  0.71240  Biso   1.000  C
  H85      1.0000 0.61595  0.58960  0.65294  Biso   1.000  H
  H86      1.0000 0.67678  0.58343  0.74783  Biso   1.000  H
  H87      1.0000 0.73467  0.86472  0.83670  Biso   1.000  H
  H88      1.0000 0.73846  0.67411  0.87369  Biso   1.000  H
  H89      1.0000 0.74136  0.75603  0.91770  Biso   1.000  H
  C101     1.0000 0.65700  0.68009  0.90749  Biso   1.000  C
  H90      1.0000 0.41467  0.41052  0.75653  Biso   1.000  H
  H91      1.0000 0.35714  0.43082  0.78832  Biso   1.000  H
  H92      1.0000 0.34218  0.46598  0.70232  Biso   1.000  H
  C102     1.0000 0.63719  0.56869  0.98022  Biso   1.000  C
  H93      1.0000 0.54878  0.58491  0.00132  Biso   1.000  H
  O8       1.0000 0.57263  0.79680  0.86600  Biso   1.000  O
  H94      1.0000 0.35197  0.06711  0.67341  Biso   1.000  H
  C103     1.0000 0.25154  0.13367  0.61582  Biso   1.000  C
  C104     1.0000 0.20053  0.15422  0.47024  Biso   1.000  C
  H95      1.0000 0.26704  0.10579  0.42724  Biso   1.000  H
  H96      1.0000 0.42474  0.19339  0.63003  Biso   1.000  H
  C105     1.0000 0.53332  0.23250  0.66690  Biso   1.000  C
  C106     1.0000 0.60954  0.13768  0.64461  Biso   1.000  C
  H97      1.0000 0.55543  0.03121  0.59054  Biso   1.000  H
  C107     1.0000 0.61896  0.45179  0.74169  Biso   1.000  C
  H98      1.0000 0.55263  0.48621  0.65569  Biso   1.000  H
  H99      1.0000 0.55687  0.51428  0.73731  Biso   1.000  H
  C108     1.0000 0.67661  0.60342  0.94511  Biso   1.000  C
  H100     1.0000 0.65241  0.51588  0.00720  Biso   1.000  H
  C109     1.0000 0.60757  0.86429  0.92051  Biso   1.000  C
  H101     1.0000 0.24798  0.14200  0.66514  Biso   1.000  H
  C110     1.0000 0.19696  0.16421  0.54234  Biso   1.000  C
  H102     1.0000 0.16094  0.17568  0.41754  Biso   1.000  H
  H103     1.0000 0.52725  0.28549  0.68599  Biso   1.000  H
  C111     1.0000 0.60214  0.21220  0.67384  Biso   1.000  C
  H104     1.0000 0.65746  0.12300  0.64825  Biso   1.000  H
  H105     1.0000 0.58546  0.41052  0.74351  Biso   1.000  H
  H106     1.0000 0.64294  0.43082  0.71171  Biso   1.000  H
  H107     1.0000 0.65795  0.46598  0.79771  Biso   1.000  H
  H108     1.0000 0.71885  0.57368  0.94674  Biso   1.000  H
  H109     1.0000 0.60249  0.85800  0.96914  Biso   1.000  H
  H110     1.0000 0.66167  0.86602  0.93854  Biso   1.000  H
  C112     1.0000 0.56965  0.94288  0.87614  Biso   1.000  C
  H111     1.0000 0.15425  0.19370  0.53959  Biso   1.000  H
  H112     1.0000 0.64493  0.24983  0.69869  Biso   1.000  H
  H113     1.0000 0.58357  0.95460  0.83451  Biso   1.000  H
  H114     1.0000 0.51456  0.93683  0.84835  Biso   1.000  H
  P4       1.0000 0.60004  0.02912  0.95149  Biso   1.000  P
  C113     1.0000 0.68008  0.07951  0.94893  Biso   1.000  C
  C114     1.0000 0.52150  0.10246  0.89610  Biso   1.000  C
  C115     1.0000 0.68655  0.09000  0.87920  Biso   1.000  C
  C116     1.0000 0.73711  0.11239  0.02360  Biso   1.000  C
  C117     1.0000 0.52768  0.17809  0.86693  Biso   1.000  C
  C118     1.0000 0.45105  0.08359  0.88953  Biso   1.000  C
  H115     1.0000 0.64816  0.06711  0.82663  Biso   1.000  H
  C119     1.0000 0.74853  0.13367  0.88421  Biso   1.000  C
  C120     1.0000 0.79949  0.15422  0.02979  Biso   1.000  C
  H116     1.0000 0.73299  0.10579  0.07279  Biso   1.000  H
  H117     1.0000 0.57534  0.19339  0.87000  Biso   1.000  H
  C121     1.0000 0.46676  0.23250  0.83314  Biso   1.000  C
  C122     1.0000 0.39058  0.13768  0.85542  Biso   1.000  C
  H118     1.0000 0.44465  0.03121  0.90950  Biso   1.000  H
  H119     1.0000 0.75218  0.14200  0.83495  Biso   1.000  H
  C123     1.0000 0.80319  0.16421  0.95775  Biso   1.000  C
  H120     1.0000 0.83909  0.17568  0.08249  Biso   1.000  H
  H121     1.0000 0.47287  0.28549  0.81405  Biso   1.000  H
  C124     1.0000 0.39796  0.21220  0.82625  Biso   1.000  C
  H122     1.0000 0.34270  0.12300  0.85185  Biso   1.000  H
  H123     1.0000 0.84588  0.19370  0.96044  Biso   1.000  H
  H124     1.0000 0.35514  0.24983  0.80134  Biso   1.000  H
  C125     1.0000 0.10954  0.63772  0.64461  Biso   1.000  C
  C126     1.0000 0.04902  0.58362  0.61050  Biso   1.000  C
  C127     1.0000 0.10214  0.71223  0.67384  Biso   1.000  C
  H125     1.0000 0.15746  0.62303  0.64825  Biso   1.000  H
  C128     1.0000 0.97857  0.60249  0.60393  Biso   1.000  C
  H126     1.0000 0.05543  0.53118  0.59054  Biso   1.000  H
  C129     1.0000 0.03332  0.73253  0.66690  Biso   1.000  C
  H127     1.0000 0.14493  0.74980  0.69869  Biso   1.000  H
  P5       1.0000 0.90004  0.52915  0.54854  Biso   1.000  P
  C130     1.0000 0.97244  0.67812  0.63310  Biso   1.000  C
  H128     1.0000 0.02725  0.78552  0.68599  Biso   1.000  H
  C131     1.0000 0.93043  0.44291  0.62390  Biso   1.000  C
  C132     1.0000 0.82000  0.57954  0.55111  Biso   1.000  C
  H129     1.0000 0.92474  0.69342  0.63003  Biso   1.000  H
  C133     1.0000 0.89250  0.36426  0.57952  Biso   1.000  C
  H130     1.0000 0.91655  0.45463  0.66552  Biso   1.000  H
  H131     1.0000 0.98552  0.43680  0.65169  Biso   1.000  H
  C134     1.0000 0.81353  0.59003  0.62083  Biso   1.000  C
  C135     1.0000 0.76292  0.61242  0.47644  Biso   1.000  C
  O9       1.0000 0.92750  0.29677  0.63404  Biso   1.000  O
  H132     1.0000 0.89764  0.35803  0.53089  Biso   1.000  H
  H133     1.0000 0.83840  0.36599  0.56150  Biso   1.000  H
  H134     1.0000 0.85192  0.56708  0.67341  Biso   1.000  H
  C136     1.0000 0.75154  0.63371  0.61582  Biso   1.000  C
  C137     1.0000 0.70053  0.65419  0.47024  Biso   1.000  C
  H135     1.0000 0.76704  0.60582  0.42724  Biso   1.000  H
  C138     1.0000 0.90496  0.22102  0.59473  Biso   1.000  C
  H136     1.0000 0.74798  0.64203  0.66514  Biso   1.000  H
  C139     1.0000 0.69696  0.66424  0.54234  Biso   1.000  C
  H137     1.0000 0.66094  0.67571  0.41754  Biso   1.000  H
  C140     1.0000 0.94787  0.18592  0.56187  Biso   1.000  C
  C141     1.0000 0.84313  0.18012  0.59254  Biso   1.000  C
  H138     1.0000 0.65425  0.69373  0.53959  Biso   1.000  H
  C142     1.0000 0.01479  0.23009  0.56300  Biso   1.000  C
  C143     1.0000 0.92396  0.10968  0.52350  Biso   1.000  C
  C144     1.0000 0.82347  0.10339  0.55492  Biso   1.000  C
  C145     1.0000 0.79309  0.21751  0.62390  Biso   1.000  C
  C146     1.0000 0.07797  0.26581  0.64393  Biso   1.000  C
  H139     1.0000 0.03853  0.19222  0.54284  Biso   1.000  H
  H140     1.0000 0.99371  0.27438  0.52319  Biso   1.000  H
  C147     1.0000 0.86294  0.06872  0.51981  Biso   1.000  C
  H141     1.0000 0.95125  0.08488  0.49872  Biso   1.000  H
  H142     1.0000 0.78123  0.07372  0.55330  Biso   1.000  H
  C148     1.0000 0.83043  0.26118  0.70702  Biso   1.000  C
  H143     1.0000 0.76167  0.17408  0.62634  Biso   1.000  H
  H144     1.0000 0.75876  0.25600  0.58234  Biso   1.000  H
  C149     1.0000 0.11247  0.22528  0.71954  Biso   1.000  C
  C150     1.0000 0.10523  0.34390  0.64199  Biso   1.000  C
  H145     1.0000 0.84767  0.01592  0.49283  Biso   1.000  H
  C151     1.0000 0.88760  0.22528  0.78050  Biso   1.000  C
  C152     1.0000 0.80577  0.33891  0.71284  Biso   1.000  C
  O10      1.0000 0.08663  0.14607  0.72398  Biso   1.000  O
  C153     1.0000 0.16965  0.26118  0.79302  Biso   1.000  C
  H146     1.0000 0.08315  0.37320  0.58991  Biso   1.000  H
  C154     1.0000 0.16283  0.38024  0.71271  Biso   1.000  C
  O11      1.0000 0.91350  0.14607  0.77605  Biso   1.000  O
  C155     1.0000 0.92216  0.26581  0.85611  Biso   1.000  C
  C156     1.0000 0.83725  0.38024  0.78732  Biso   1.000  C
  H147     1.0000 0.76546  0.36469  0.66333  Biso   1.000  H
  C157     1.0000 0.12246  0.08291  0.70771  Biso   1.000  C
  C158     1.0000 0.19436  0.33891  0.78719  Biso   1.000  C
  C159     1.0000 0.20704  0.21751  0.87614  Biso   1.000  C
  H148     1.0000 0.18105  0.43421  0.71015  Biso   1.000  H
  C160     1.0000 0.87767  0.08291  0.79233  Biso   1.000  C
  C161     1.0000 0.98534  0.23009  0.93704  Biso   1.000  C
  C162     1.0000 0.89485  0.34390  0.85805  Biso   1.000  C
  H149     1.0000 0.81905  0.43421  0.78995  Biso   1.000  H
  C163     1.0000 0.08784  0.00241  0.71240  Biso   1.000  C
  H150     1.0000 0.11595  0.08963  0.65294  Biso   1.000  H
  H151     1.0000 0.17678  0.08340  0.74783  Biso   1.000  H
  H152     1.0000 0.23467  0.36469  0.83670  Biso   1.000  H
  H153     1.0000 0.23846  0.17408  0.87369  Biso   1.000  H
  H154     1.0000 0.24136  0.25600  0.91770  Biso   1.000  H
  C164     1.0000 0.15700  0.18012  0.90749  Biso   1.000  C
  C165     1.0000 0.91228  0.00241  0.78763  Biso   1.000  C
  H155     1.0000 0.88412  0.08963  0.84709  Biso   1.000  H
  H156     1.0000 0.82335  0.08340  0.75221  Biso   1.000  H
  C166     1.0000 0.05226  0.18592  0.93816  Biso   1.000  C
  H157     1.0000 0.00636  0.27438  0.97684  Biso   1.000  H
  H158     1.0000 0.96157  0.19222  0.95725  Biso   1.000  H
  H159     1.0000 0.91698  0.37320  0.91012  Biso   1.000  H
  H160     1.0000 0.05687  0.01431  0.73731  Biso   1.000  H
  C167     1.0000 0.11896  0.95182  0.74169  Biso   1.000  C
  H161     1.0000 0.05263  0.98624  0.65569  Biso   1.000  H
  C168     1.0000 0.17661  0.10339  0.94511  Biso   1.000  C
  C169     1.0000 0.09512  0.22102  0.90530  Biso   1.000  C
  C170     1.0000 0.88116  0.95182  0.75834  Biso   1.000  C
  H162     1.0000 0.94745  0.98624  0.84434  Biso   1.000  H
  H163     1.0000 0.94326  0.01431  0.76272  Biso   1.000  H
  C171     1.0000 0.07619  0.10968  0.97659  Biso   1.000  C
  H164     1.0000 0.08546  0.91049  0.74351  Biso   1.000  H
  H165     1.0000 0.14294  0.93079  0.71171  Biso   1.000  H
  H166     1.0000 0.15795  0.96601  0.79771  Biso   1.000  H
  H167     1.0000 0.21890  0.07372  0.94674  Biso   1.000  H
  C172     1.0000 0.13719  0.06872  0.98022  Biso   1.000  C
  O12      1.0000 0.07263  0.29677  0.86600  Biso   1.000  O
  H168     1.0000 0.91467  0.91049  0.75653  Biso   1.000  H
  H169     1.0000 0.85714  0.93079  0.78832  Biso   1.000  H
  H170     1.0000 0.84218  0.96601  0.70232  Biso   1.000  H
  H171     1.0000 0.04878  0.08488  0.00132  Biso   1.000  H
  H172     1.0000 0.15241  0.01592  0.00720  Biso   1.000  H
  C173     1.0000 0.10757  0.36426  0.92051  Biso   1.000  C
  H173     1.0000 0.10249  0.35803  0.96914  Biso   1.000  H
  H174     1.0000 0.16167  0.36599  0.93854  Biso   1.000  H
  C174     1.0000 0.06965  0.44291  0.87614  Biso   1.000  C
  P6       1.0000 0.10004  0.52915  0.95149  Biso   1.000  P
  H175     1.0000 0.08357  0.45463  0.83451  Biso   1.000  H
  H176     1.0000 0.01456  0.43680  0.84835  Biso   1.000  H
  C175     1.0000 0.18013  0.57954  0.94893  Biso   1.000  C
  C176     1.0000 0.02150  0.60249  0.89610  Biso   1.000  C
  C177     1.0000 0.18655  0.59003  0.87920  Biso   1.000  C
  C178     1.0000 0.23711  0.61242  0.02360  Biso   1.000  C
  C179     1.0000 0.02768  0.67812  0.86693  Biso   1.000  C
  C180     1.0000 0.95105  0.58362  0.88953  Biso   1.000  C
  H177     1.0000 0.14816  0.56708  0.82663  Biso   1.000  H
  C181     1.0000 0.24858  0.63371  0.88421  Biso   1.000  C
  C182     1.0000 0.29949  0.65419  0.02979  Biso   1.000  C
  H178     1.0000 0.23299  0.60582  0.07279  Biso   1.000  H
  H179     1.0000 0.07534  0.69342  0.87000  Biso   1.000  H
  C183     1.0000 0.96676  0.73253  0.83314  Biso   1.000  C
  C184     1.0000 0.89053  0.63772  0.85542  Biso   1.000  C
  H180     1.0000 0.94465  0.53118  0.90950  Biso   1.000  H
  H181     1.0000 0.25218  0.64203  0.83495  Biso   1.000  H
  C185     1.0000 0.30319  0.66424  0.95775  Biso   1.000  C
  H182     1.0000 0.33909  0.67571  0.08249  Biso   1.000  H
  H183     1.0000 0.97287  0.78552  0.81405  Biso   1.000  H
  C186     1.0000 0.89796  0.71223  0.82625  Biso   1.000  C
  H184     1.0000 0.84270  0.62303  0.85185  Biso   1.000  H
  H185     1.0000 0.34588  0.69373  0.96044  Biso   1.000  H
  H186     1.0000 0.85514  0.74980  0.80134  Biso   1.000  H
  C187     1.0000 0.37763  0.41712  0.29230  Biso   1.000  C
  O13      1.0000 0.41349  0.35390  0.27608  Biso   1.000  O
  C188     1.0000 0.41220  0.49763  0.28760  Biso   1.000  C
  H187     1.0000 0.38412  0.41040  0.34712  Biso   1.000  H
  H188     1.0000 0.32331  0.41663  0.25218  Biso   1.000  H
  C189     1.0000 0.38757  0.27469  0.28047  Biso   1.000  C
  C190     1.0000 0.38113  0.54821  0.25831  Biso   1.000  C
  H189     1.0000 0.44741  0.51379  0.34431  Biso   1.000  H
  H190     1.0000 0.44322  0.48572  0.26269  Biso   1.000  H
  C191     1.0000 0.33039  0.23879  0.20699  Biso   1.000  C
  C192     1.0000 0.42215  0.23422  0.35614  Biso   1.000  C
  H191     1.0000 0.41463  0.58954  0.25649  Biso   1.000  H
  H192     1.0000 0.35710  0.56918  0.28829  Biso   1.000  H
  H193     1.0000 0.34209  0.53402  0.20229  Biso   1.000  H
  C193     1.0000 0.30573  0.16113  0.21281  Biso   1.000  C
  C194     1.0000 0.29300  0.28252  0.12387  Biso   1.000  C
  C195     1.0000 0.39481  0.15613  0.35802  Biso   1.000  C
  C196     1.0000 0.48525  0.26988  0.43700  Biso   1.000  C
  C197     1.0000 0.33722  0.11980  0.28729  Biso   1.000  C
  H194     1.0000 0.26543  0.13528  0.16330  Biso   1.000  H
  H195     1.0000 0.26163  0.32589  0.12631  Biso   1.000  H
  H196     1.0000 0.25873  0.24403  0.08231  Biso   1.000  H
  C198     1.0000 0.34310  0.31991  0.09251  Biso   1.000  C
  H197     1.0000 0.41694  0.12683  0.41009  Biso   1.000  H
  C199     1.0000 0.55223  0.31411  0.43813  Biso   1.000  C
  H198     1.0000 0.50633  0.22559  0.47681  Biso   1.000  H
  H199     1.0000 0.46154  0.30782  0.45722  Biso   1.000  H
  H200     1.0000 0.31902  0.06582  0.28992  Biso   1.000  H
  C200     1.0000 0.32344  0.39658  0.05489  Biso   1.000  C
  C201     1.0000 0.40492  0.27901  0.09470  Biso   1.000  C
  C202     1.0000 0.57616  0.39029  0.47656  Biso   1.000  C
  C203     1.0000 0.59511  0.27901  0.40533  Biso   1.000  C
  H201     1.0000 0.28122  0.42632  0.05333  Biso   1.000  H
  C204     1.0000 0.36290  0.43131  0.01978  Biso   1.000  C
  O14      1.0000 0.42749  0.20320  0.13407  Biso   1.000  O
  C205     1.0000 0.44781  0.31411  0.06190  Biso   1.000  C
  C206     1.0000 0.63710  0.43131  0.48019  Biso   1.000  C
  H202     1.0000 0.54884  0.41509  0.50128  Biso   1.000  H
  O15      1.0000 0.57254  0.20320  0.36596  Biso   1.000  O
  C207     1.0000 0.65696  0.31991  0.40746  Biso   1.000  C
  C208     1.0000 0.42393  0.39029  0.02347  Biso   1.000  C
  H203     1.0000 0.34768  0.48412  0.99280  Biso   1.000  H
  C209     1.0000 0.39247  0.13571  0.07949  Biso   1.000  C
  C210     1.0000 0.51478  0.26988  0.06303  Biso   1.000  C
  C211     1.0000 0.67660  0.39658  0.44514  Biso   1.000  C
  H204     1.0000 0.65245  0.48412  0.50723  Biso   1.000  H
  C212     1.0000 0.60754  0.13571  0.42048  Biso   1.000  C
  C213     1.0000 0.70701  0.28252  0.37610  Biso   1.000  C
  H205     1.0000 0.45129  0.41509  0.99875  Biso   1.000  H
  H206     1.0000 0.39763  0.14200  0.03092  Biso   1.000  H
  H207     1.0000 0.33840  0.13398  0.06153  Biso   1.000  H
  C214     1.0000 0.43039  0.05712  0.12387  Biso   1.000  C
  C215     1.0000 0.57789  0.23422  0.14389  Biso   1.000  C
  H208     1.0000 0.49371  0.22559  0.02322  Biso   1.000  H
  H209     1.0000 0.53850  0.30782  0.04281  Biso   1.000  H
  H210     1.0000 0.71881  0.42632  0.44671  Biso   1.000  H
  H211     1.0000 0.60246  0.14200  0.46911  Biso   1.000  H
  H212     1.0000 0.66164  0.13398  0.43851  Biso   1.000  H
  C216     1.0000 0.56961  0.05712  0.37610  Biso   1.000  C
  C217     1.0000 0.66964  0.23879  0.29305  Biso   1.000  C
  H213     1.0000 0.73845  0.32589  0.37373  Biso   1.000  H
  H214     1.0000 0.74136  0.24403  0.41773  Biso   1.000  H
  H215     1.0000 0.41652  0.04540  0.16549  Biso   1.000  H
  H216     1.0000 0.48551  0.06323  0.15172  Biso   1.000  H
  P7       1.0000 0.40000  0.97088  0.04851  Biso   1.000  P
  C218     1.0000 0.61244  0.27469  0.21950  Biso   1.000  C
  C219     1.0000 0.60522  0.15613  0.14202  Biso   1.000  C
  H217     1.0000 0.58349  0.04540  0.33448  Biso   1.000  H
  H218     1.0000 0.51452  0.06323  0.34831  Biso   1.000  H
  P8       1.0000 0.60000  0.97088  0.45146  Biso   1.000  P
  C220     1.0000 0.69435  0.16113  0.28723  Biso   1.000  C
  C221     1.0000 0.31997  0.92049  0.05107  Biso   1.000  C
  C222     1.0000 0.47854  0.89754  0.10390  Biso   1.000  C
  O16      1.0000 0.58654  0.35390  0.22395  Biso   1.000  O
  H219     1.0000 0.58311  0.12683  0.08988  Biso   1.000  H
  C223     1.0000 0.66279  0.11980  0.21268  Biso   1.000  C
  C224     1.0000 0.68004  0.92049  0.44890  Biso   1.000  C
  C225     1.0000 0.52147  0.89754  0.39607  Biso   1.000  C
  H220     1.0000 0.73461  0.13528  0.33673  Biso   1.000  H
  C226     1.0000 0.26298  0.88761  0.97640  Biso   1.000  C
  C227     1.0000 0.31349  0.91000  0.12080  Biso   1.000  C
  C228     1.0000 0.47244  0.82191  0.13313  Biso   1.000  C
  C229     1.0000 0.54899  0.91641  0.11047  Biso   1.000  C
  C230     1.0000 0.62245  0.41712  0.20774  Biso   1.000  C
  H221     1.0000 0.68102  0.06582  0.21011  Biso   1.000  H
  C231     1.0000 0.68654  0.91000  0.37923  Biso   1.000  C
  C232     1.0000 0.73715  0.88761  0.52363  Biso   1.000  C
  C233     1.0000 0.52765  0.82191  0.36690  Biso   1.000  C
  C234     1.0000 0.45102  0.91641  0.38950  Biso   1.000  C
  C235     1.0000 0.20060  0.84585  0.97021  Biso   1.000  C
  H222     1.0000 0.26706  0.89421  0.92721  Biso   1.000  H
  H223     1.0000 0.35188  0.93295  0.17337  Biso   1.000  H
  C236     1.0000 0.25151  0.86633  0.11579  Biso   1.000  C
  H224     1.0000 0.42471  0.80661  0.13000  Biso   1.000  H
  C237     1.0000 0.53331  0.76750  0.16693  Biso   1.000  C
  C238     1.0000 0.60951  0.86232  0.14458  Biso   1.000  C
  H225     1.0000 0.55540  0.96885  0.09051  Biso   1.000  H
  C239     1.0000 0.58784  0.49763  0.21243  Biso   1.000  C
  H226     1.0000 0.61592  0.41040  0.15291  Biso   1.000  H
  H227     1.0000 0.67669  0.41663  0.24779  Biso   1.000  H
  H228     1.0000 0.64813  0.93295  0.32659  Biso   1.000  H
  C240     1.0000 0.74853  0.86633  0.38424  Biso   1.000  C
  C241     1.0000 0.79954  0.84585  0.52982  Biso   1.000  C
  H229     1.0000 0.73303  0.89421  0.57282  Biso   1.000  H
  H230     1.0000 0.57533  0.80661  0.37003  Biso   1.000  H
  C242     1.0000 0.46672  0.76750  0.33310  Biso   1.000  C
  C243     1.0000 0.39050  0.86232  0.35539  Biso   1.000  C
  H231     1.0000 0.44464  0.96885  0.40953  Biso   1.000  H
  H232     1.0000 0.16095  0.82432  0.91751  Biso   1.000  H
  C244     1.0000 0.19693  0.83579  0.04231  Biso   1.000  C
  H233     1.0000 0.24790  0.85800  0.16511  Biso   1.000  H
  H234     1.0000 0.52720  0.71451  0.18602  Biso   1.000  H
  C245     1.0000 0.60211  0.78780  0.17381  Biso   1.000  C
  H235     1.0000 0.65742  0.87700  0.14821  Biso   1.000  H
  C246     1.0000 0.61891  0.54821  0.24172  Biso   1.000  C
  H236     1.0000 0.55262  0.51379  0.15572  Biso   1.000  H
  H237     1.0000 0.55679  0.48572  0.23728  Biso   1.000  H
  H238     1.0000 0.75214  0.85800  0.33492  Biso   1.000  H
  C247     1.0000 0.80316  0.83579  0.45772  Biso   1.000  C
  H239     1.0000 0.83913  0.82432  0.58253  Biso   1.000  H
  H240     1.0000 0.47284  0.71451  0.31401  Biso   1.000  H
  C248     1.0000 0.39793  0.78780  0.32622  Biso   1.000  C
  H241     1.0000 0.34261  0.87700  0.35182  Biso   1.000  H
  H242     1.0000 0.15419  0.80630  0.03962  Biso   1.000  H
  H243     1.0000 0.64493  0.75023  0.19872  Biso   1.000  H
  H244     1.0000 0.58542  0.58954  0.24348  Biso   1.000  H
  H245     1.0000 0.64290  0.56918  0.21168  Biso   1.000  H
  H246     1.0000 0.65792  0.53402  0.29768  Biso   1.000  H
  H247     1.0000 0.84585  0.80630  0.46041  Biso   1.000  H
  H248     1.0000 0.35511  0.75023  0.30131  Biso   1.000  H
