data_image0
_cell_length_a       20.736
_cell_length_b       15.807
_cell_length_c       16.385
_cell_angle_alpha    90
_cell_angle_beta     116.93
_cell_angle_gamma    90

_symmetry_space_group_name_H-M    "P 1"
_symmetry_int_tables_number       1

loop_
  _symmetry_equiv_pos_as_xyz
  'x, y, z'

loop_
  _atom_site_label
  _atom_site_occupancy
  _atom_site_fract_x
  _atom_site_fract_y
  _atom_site_fract_z
  _atom_site_thermal_displace_type
  _atom_site_B_iso_or_equiv
  _atom_site_type_symbol
  C1       1.0000 0.55239  0.50180  0.62937  Biso   1.000  C
  C2       1.0000 0.55278  0.57399  0.67599  Biso   1.000  C
  H1       1.0000 0.50902  0.47511  0.59213  Biso   1.000  H
  C3       1.0000 0.61716  0.46916  0.63841  Biso   1.000  C
  C4       1.0000 0.61807  0.61289  0.73178  Biso   1.000  C
  H2       1.0000 0.50951  0.59682  0.67017  Biso   1.000  H
  C5       1.0000 0.68240  0.50819  0.69173  Biso   1.000  C
  H3       1.0000 0.61673  0.41937  0.60781  Biso   1.000  H
  C6       1.0000 0.68228  0.58120  0.73883  Biso   1.000  C
  H4       1.0000 0.61850  0.66091  0.76491  Biso   1.000  H
  C7       1.0000 0.75131  0.47068  0.69618  Biso   1.000  C
  H5       1.0000 0.72557  0.60872  0.77518  Biso   1.000  H
  N1       1.0000 0.81665  0.50338  0.77162  Biso   1.000  N
  N2       1.0000 0.75096  0.37850  0.70111  Biso   1.000  N
  C8       1.0000 0.76498  0.48681  0.61041  Biso   1.000  C
  C9       1.0000 0.87075  0.51642  0.74533  Biso   1.000  C
  C10      1.0000 0.83324  0.46663  0.86150  Biso   1.000  C
  C11      1.0000 0.76801  0.34042  0.63827  Biso   1.000  C
  C12      1.0000 0.76711  0.34270  0.79072  Biso   1.000  C
  N3       1.0000 0.83866  0.52002  0.65176  Biso   1.000  N
  N4       1.0000 0.76428  0.40172  0.57516  Biso   1.000  N
  C13      1.0000 0.71457  0.54666  0.53840  Biso   1.000  C
  O1       1.0000 0.93521  0.52717  0.79729  Biso   1.000  O
  N5       1.0000 0.83436  0.37483  0.86383  Biso   1.000  N
  H6       1.0000 0.79761  0.48649  0.87998  Biso   1.000  H
  H7       1.0000 0.88012  0.48738  0.90600  Biso   1.000  H
  O2       1.0000 0.78077  0.26608  0.63512  Biso   1.000  O
  H8       1.0000 0.77030  0.28158  0.78791  Biso   1.000  H
  H9       1.0000 0.72762  0.35560  0.80503  Biso   1.000  H
  C14      1.0000 0.87739  0.51129  0.59597  Biso   1.000  C
  C15      1.0000 0.80441  0.39154  0.52087  Biso   1.000  C
  C16      1.0000 0.71998  0.63339  0.55633  Biso   1.000  C
  C17      1.0000 0.66167  0.51888  0.45296  Biso   1.000  C
  C18      1.0000 0.89938  0.33536  0.86684  Biso   1.000  C
  N6       1.0000 0.87704  0.42551  0.56441  Biso   1.000  N
  H10      1.0000 0.92709  0.52939  0.63190  Biso   1.000  H
  H11      1.0000 0.85532  0.54843  0.54332  Biso   1.000  H
  H12      1.0000 0.77761  0.41931  0.46227  Biso   1.000  H
  H13      1.0000 0.80690  0.33182  0.50923  Biso   1.000  H
  H14      1.0000 0.75521  0.65332  0.61219  Biso   1.000  H
  C19      1.0000 0.67373  0.68988  0.49219  Biso   1.000  C
  C20      1.0000 0.61834  0.57702  0.38903  Biso   1.000  C
  H15      1.0000 0.65578  0.46138  0.43948  Biso   1.000  H
  H16      1.0000 0.89430  0.27437  0.86718  Biso   1.000  H
  H17      1.0000 0.90308  0.35041  0.81167  Biso   1.000  H
  C21      1.0000 0.96847  0.36104  0.94926  Biso   1.000  C
  C22      1.0000 0.93066  0.37129  0.63567  Biso   1.000  C
  H18      1.0000 0.67670  0.74733  0.50602  Biso   1.000  H
  C23      1.0000 0.62329  0.66129  0.40799  Biso   1.000  C
  H19      1.0000 0.58488  0.55830  0.33139  Biso   1.000  H
  H20      1.0000 0.98220  0.41690  0.93817  Biso   1.000  H
  H21      1.0000 0.95876  0.36509  0.00176  Biso   1.000  H
  N7       1.0000 0.02927  0.30417  0.97199  Biso   1.000  N
  H22      1.0000 0.97490  0.40330  0.66873  Biso   1.000  H
  H23      1.0000 0.91263  0.35579  0.67893  Biso   1.000  H
  C24      1.0000 0.94805  0.29139  0.59870  Biso   1.000  C
  H24      1.0000 0.59271  0.69937  0.36432  Biso   1.000  H
  C25      1.0000 0.05195  0.29139  0.90127  Biso   1.000  C
  C26      1.0000 0.02478  0.23021  0.01457  Biso   1.000  C
  N8       1.0000 0.97073  0.30417  0.52799  Biso   1.000  N
  H25      1.0000 0.90550  0.25539  0.57440  Biso   1.000  H
  H26      1.0000 0.98610  0.26128  0.64922  Biso   1.000  H
  C27      1.0000 0.06929  0.37129  0.86431  Biso   1.000  C
  H27      1.0000 0.09450  0.25539  0.92557  Biso   1.000  H
  H28      1.0000 0.01393  0.26128  0.85082  Biso   1.000  H
  H29      1.0000 0.97639  0.20719  0.98123  Biso   1.000  H
  H30      1.0000 0.05818  0.18922  0.01101  Biso   1.000  H
  C28      1.0000 0.04020  0.24021  0.10698  Biso   1.000  C
  C29      1.0000 0.97522  0.23021  0.48541  Biso   1.000  C
  C30      1.0000 0.03155  0.36104  0.55079  Biso   1.000  C
  N9       1.0000 0.12293  0.42551  0.93564  Biso   1.000  N
  H31      1.0000 0.02513  0.40330  0.83131  Biso   1.000  H
  H32      1.0000 0.08740  0.35579  0.82111  Biso   1.000  H
  N10      1.0000 0.10678  0.26722  0.15017  Biso   1.000  N
  H33      1.0000 0.03497  0.18669  0.13238  Biso   1.000  H
  H34      1.0000 0.00730  0.28089  0.11246  Biso   1.000  H
  H35      1.0000 0.94177  0.18922  0.48897  Biso   1.000  H
  C31      1.0000 0.95980  0.24021  0.39300  Biso   1.000  C
  H36      1.0000 0.02358  0.20719  0.51882  Biso   1.000  H
  C32      1.0000 0.10062  0.33536  0.63314  Biso   1.000  C
  H37      1.0000 0.04119  0.36509  0.49821  Biso   1.000  H
  H38      1.0000 0.01780  0.41690  0.56181  Biso   1.000  H
  C33      1.0000 0.12261  0.51129  0.90401  Biso   1.000  C
  C34      1.0000 0.19559  0.39154  0.97911  Biso   1.000  C
  N11      1.0000 0.89322  0.26722  0.34980  Biso   1.000  N
  H39      1.0000 0.96498  0.18669  0.36760  Biso   1.000  H
  H40      1.0000 0.99270  0.28089  0.38752  Biso   1.000  H
  N12      1.0000 0.16564  0.37483  0.63615  Biso   1.000  N
  H41      1.0000 0.10570  0.27437  0.63279  Biso   1.000  H
  H42      1.0000 0.09692  0.35041  0.68831  Biso   1.000  H
  N13      1.0000 0.16129  0.52002  0.84822  Biso   1.000  N
  H43      1.0000 0.07291  0.52939  0.86807  Biso   1.000  H
  H44      1.0000 0.14471  0.54843  0.95672  Biso   1.000  H
  N14      1.0000 0.23567  0.40172  0.92482  Biso   1.000  N
  H45      1.0000 0.19312  0.33182  0.99081  Biso   1.000  H
  H46      1.0000 0.22239  0.41931  0.03770  Biso   1.000  H
  C35      1.0000 0.16676  0.46663  0.63848  Biso   1.000  C
  C36      1.0000 0.23284  0.34270  0.70926  Biso   1.000  C
  C37      1.0000 0.23497  0.48681  0.88957  Biso   1.000  C
  C38      1.0000 0.12927  0.51642  0.75471  Biso   1.000  C
  C39      1.0000 0.23199  0.34042  0.86171  Biso   1.000  C
  N15      1.0000 0.18335  0.50338  0.72836  Biso   1.000  N
  H47      1.0000 0.20239  0.48649  0.61999  Biso   1.000  H
  H48      1.0000 0.11988  0.48738  0.59398  Biso   1.000  H
  N16      1.0000 0.24905  0.37850  0.79887  Biso   1.000  N
  H49      1.0000 0.22973  0.28158  0.71213  Biso   1.000  H
  H50      1.0000 0.27241  0.35560  0.69502  Biso   1.000  H
  C40      1.0000 0.24869  0.47068  0.80379  Biso   1.000  C
  C41      1.0000 0.28546  0.54666  0.96165  Biso   1.000  C
  O3       1.0000 0.06477  0.52717  0.70276  Biso   1.000  O
  O4       1.0000 0.21925  0.26608  0.86492  Biso   1.000  O
  C42      1.0000 0.31760  0.50819  0.80824  Biso   1.000  C
  C43      1.0000 0.28005  0.63339  0.94372  Biso   1.000  C
  C44      1.0000 0.33833  0.51888  0.04701  Biso   1.000  C
  C45      1.0000 0.31772  0.58120  0.76115  Biso   1.000  C
  C46      1.0000 0.38284  0.46916  0.86157  Biso   1.000  C
  H51      1.0000 0.24480  0.65332  0.88779  Biso   1.000  H
  C47      1.0000 0.32627  0.68988  0.00779  Biso   1.000  C
  C48      1.0000 0.38169  0.57702  0.11102  Biso   1.000  C
  H52      1.0000 0.34417  0.46138  0.06050  Biso   1.000  H
  H53      1.0000 0.27438  0.60872  0.72480  Biso   1.000  H
  C49      1.0000 0.38193  0.61289  0.76820  Biso   1.000  C
  C50      1.0000 0.44761  0.50180  0.87061  Biso   1.000  C
  H54      1.0000 0.38328  0.41937  0.89217  Biso   1.000  H
  H55      1.0000 0.32333  0.74733  0.99403  Biso   1.000  H
  C51      1.0000 0.37671  0.66129  0.09199  Biso   1.000  C
  H56      1.0000 0.41507  0.55830  0.16859  Biso   1.000  H
  H57      1.0000 0.38152  0.66091  0.73513  Biso   1.000  H
  C52      1.0000 0.44722  0.57399  0.82399  Biso   1.000  C
  H58      1.0000 0.49100  0.47511  0.90791  Biso   1.000  H
  H59      1.0000 0.40729  0.69937  0.13566  Biso   1.000  H
  H60      1.0000 0.49049  0.59682  0.82981  Biso   1.000  H
  C53      1.0000 0.47522  0.73018  0.48541  Biso   1.000  C
  C54      1.0000 0.45980  0.74018  0.39300  Biso   1.000  C
  N17      1.0000 0.47073  0.80414  0.52799  Biso   1.000  N
  H61      1.0000 0.52358  0.70722  0.51882  Biso   1.000  H
  H62      1.0000 0.44177  0.68919  0.48897  Biso   1.000  H
  N18      1.0000 0.39322  0.76719  0.34980  Biso   1.000  N
  H63      1.0000 0.46498  0.68672  0.36760  Biso   1.000  H
  H64      1.0000 0.49270  0.78092  0.38752  Biso   1.000  H
  C55      1.0000 0.53155  0.86107  0.55079  Biso   1.000  C
  C56      1.0000 0.44805  0.79136  0.59870  Biso   1.000  C
  C57      1.0000 0.60062  0.83533  0.63314  Biso   1.000  C
  H65      1.0000 0.54119  0.86512  0.49821  Biso   1.000  H
  H66      1.0000 0.51780  0.91687  0.56181  Biso   1.000  H
  C58      1.0000 0.43066  0.87126  0.63567  Biso   1.000  C
  H67      1.0000 0.40550  0.75542  0.57440  Biso   1.000  H
  H68      1.0000 0.48610  0.76131  0.64922  Biso   1.000  H
  N19      1.0000 0.66564  0.87480  0.63615  Biso   1.000  N
  H69      1.0000 0.60570  0.77440  0.63279  Biso   1.000  H
  H70      1.0000 0.59692  0.85038  0.68831  Biso   1.000  H
  N20      1.0000 0.37704  0.92554  0.56441  Biso   1.000  N
  H71      1.0000 0.47490  0.90327  0.66873  Biso   1.000  H
  H72      1.0000 0.41263  0.85582  0.67893  Biso   1.000  H
  C59      1.0000 0.66676  0.96666  0.63848  Biso   1.000  C
  C60      1.0000 0.73284  0.84266  0.70926  Biso   1.000  C
  C61      1.0000 0.30441  0.89150  0.52087  Biso   1.000  C
  C62      1.0000 0.37739  0.01132  0.59597  Biso   1.000  C
  H73      1.0000 0.70239  0.98652  0.61999  Biso   1.000  H
  H74      1.0000 0.61988  0.98741  0.59398  Biso   1.000  H
  N21      1.0000 0.68335  0.00335  0.72836  Biso   1.000  N
  N22      1.0000 0.74905  0.87853  0.79887  Biso   1.000  N
  H75      1.0000 0.72973  0.78162  0.71213  Biso   1.000  H
  H76      1.0000 0.77241  0.85557  0.69502  Biso   1.000  H
  N23      1.0000 0.26428  0.90169  0.57516  Biso   1.000  N
  H77      1.0000 0.27761  0.91928  0.46227  Biso   1.000  H
  H78      1.0000 0.30690  0.83178  0.50923  Biso   1.000  H
  N24      1.0000 0.33866  0.02005  0.65176  Biso   1.000  N
  H79      1.0000 0.42709  0.02942  0.63190  Biso   1.000  H
  H80      1.0000 0.35532  0.04840  0.54332  Biso   1.000  H
  C63      1.0000 0.74869  0.97065  0.80379  Biso   1.000  C
  C64      1.0000 0.62927  0.01639  0.75471  Biso   1.000  C
  C65      1.0000 0.73199  0.84039  0.86171  Biso   1.000  C
  C66      1.0000 0.26498  0.98684  0.61041  Biso   1.000  C
  C67      1.0000 0.26801  0.84039  0.63827  Biso   1.000  C
  C68      1.0000 0.37075  0.01639  0.74533  Biso   1.000  C
  C69      1.0000 0.73497  0.98684  0.88957  Biso   1.000  C
  C70      1.0000 0.81760  0.00822  0.80824  Biso   1.000  C
  O5       1.0000 0.56477  0.02714  0.70276  Biso   1.000  O
  N25      1.0000 0.66129  0.02005  0.84822  Biso   1.000  N
  O6       1.0000 0.71925  0.76612  0.86492  Biso   1.000  O
  N26      1.0000 0.73567  0.90169  0.92482  Biso   1.000  N
  C71      1.0000 0.25131  0.97065  0.69618  Biso   1.000  C
  C72      1.0000 0.21457  0.04662  0.53840  Biso   1.000  C
  O7       1.0000 0.28077  0.76612  0.63512  Biso   1.000  O
  N27      1.0000 0.25096  0.87853  0.70111  Biso   1.000  N
  O8       1.0000 0.43521  0.02714  0.79729  Biso   1.000  O
  N28      1.0000 0.31665  0.00335  0.77162  Biso   1.000  N
  C73      1.0000 0.78546  0.04662  0.96165  Biso   1.000  C
  C74      1.0000 0.88284  0.96913  0.86157  Biso   1.000  C
  C75      1.0000 0.81772  0.08123  0.76115  Biso   1.000  C
  C76      1.0000 0.62261  0.01132  0.90401  Biso   1.000  C
  C77      1.0000 0.69559  0.89150  0.97911  Biso   1.000  C
  C78      1.0000 0.18240  0.00822  0.69173  Biso   1.000  C
  C79      1.0000 0.21998  0.13336  0.55633  Biso   1.000  C
  C80      1.0000 0.16167  0.01892  0.45296  Biso   1.000  C
  C81      1.0000 0.26711  0.84266  0.79072  Biso   1.000  C
  C82      1.0000 0.33324  0.96666  0.86150  Biso   1.000  C
  C83      1.0000 0.78005  0.13336  0.94372  Biso   1.000  C
  C84      1.0000 0.83833  0.01892  0.04701  Biso   1.000  C
  H81      1.0000 0.88328  0.91940  0.89217  Biso   1.000  H
  C85      1.0000 0.94761  0.00177  0.87061  Biso   1.000  C
  H82      1.0000 0.77438  0.10869  0.72480  Biso   1.000  H
  C86      1.0000 0.88193  0.11292  0.76820  Biso   1.000  C
  N29      1.0000 0.62293  0.92554  0.93564  Biso   1.000  N
  H83      1.0000 0.57291  0.02942  0.86807  Biso   1.000  H
  H84      1.0000 0.64471  0.04840  0.95672  Biso   1.000  H
  H85      1.0000 0.69312  0.83178  0.99081  Biso   1.000  H
  H86      1.0000 0.72239  0.91928  0.03770  Biso   1.000  H
  C87      1.0000 0.11716  0.96913  0.63841  Biso   1.000  C
  C88      1.0000 0.18228  0.08123  0.73883  Biso   1.000  C
  H87      1.0000 0.25521  0.15329  0.61219  Biso   1.000  H
  C89      1.0000 0.17373  0.18992  0.49219  Biso   1.000  C
  H88      1.0000 0.15578  0.96141  0.43948  Biso   1.000  H
  C90      1.0000 0.11834  0.07699  0.38903  Biso   1.000  C
  N30      1.0000 0.33436  0.87480  0.86383  Biso   1.000  N
  H89      1.0000 0.27030  0.78162  0.78791  Biso   1.000  H
  H90      1.0000 0.22762  0.85557  0.80503  Biso   1.000  H
  H91      1.0000 0.29761  0.98652  0.87998  Biso   1.000  H
  H92      1.0000 0.38012  0.98741  0.90600  Biso   1.000  H
  H93      1.0000 0.74480  0.15329  0.88779  Biso   1.000  H
  C91      1.0000 0.82627  0.18992  0.00779  Biso   1.000  C
  H94      1.0000 0.84417  0.96141  0.06050  Biso   1.000  H
  C92      1.0000 0.88169  0.07699  0.11102  Biso   1.000  C
  H95      1.0000 0.99100  0.97507  0.90791  Biso   1.000  H
  C93      1.0000 0.94722  0.07402  0.82399  Biso   1.000  C
  H96      1.0000 0.88152  0.16088  0.73513  Biso   1.000  H
  C94      1.0000 0.56929  0.87126  0.86431  Biso   1.000  C
  H97      1.0000 0.11673  0.91940  0.60781  Biso   1.000  H
  C95      1.0000 0.05239  0.00177  0.62937  Biso   1.000  C
  H98      1.0000 0.22557  0.10869  0.77518  Biso   1.000  H
  C96      1.0000 0.11807  0.11292  0.73178  Biso   1.000  C
  H99      1.0000 0.17670  0.24730  0.50602  Biso   1.000  H
  C97      1.0000 0.12329  0.16132  0.40799  Biso   1.000  C
  H100     1.0000 0.08488  0.05833  0.33139  Biso   1.000  H
  C98      1.0000 0.39938  0.83533  0.86684  Biso   1.000  C
  H101     1.0000 0.82333  0.24730  0.99403  Biso   1.000  H
  C99      1.0000 0.87671  0.16132  0.09199  Biso   1.000  C
  H102     1.0000 0.91507  0.05833  0.16859  Biso   1.000  H
  H103     1.0000 0.99049  0.09679  0.82981  Biso   1.000  H
  H104     1.0000 0.52513  0.90327  0.83131  Biso   1.000  H
  H105     1.0000 0.58740  0.85582  0.82111  Biso   1.000  H
  C100     1.0000 0.55195  0.79136  0.90127  Biso   1.000  C
  H106     1.0000 0.00902  0.97507  0.59213  Biso   1.000  H
  C101     1.0000 0.05278  0.07402  0.67599  Biso   1.000  C
  H107     1.0000 0.11850  0.16088  0.76491  Biso   1.000  H
  H108     1.0000 0.09271  0.19941  0.36432  Biso   1.000  H
  H109     1.0000 0.39430  0.77440  0.86718  Biso   1.000  H
  H110     1.0000 0.40308  0.85038  0.81167  Biso   1.000  H
  C102     1.0000 0.46847  0.86107  0.94926  Biso   1.000  C
  H111     1.0000 0.90729  0.19941  0.13566  Biso   1.000  H
  N31      1.0000 0.52927  0.80414  0.97199  Biso   1.000  N
  H112     1.0000 0.59450  0.75542  0.92557  Biso   1.000  H
  H113     1.0000 0.51393  0.76131  0.85082  Biso   1.000  H
  H114     1.0000 0.00951  0.09679  0.67017  Biso   1.000  H
  H115     1.0000 0.48220  0.91687  0.93817  Biso   1.000  H
  H116     1.0000 0.45876  0.86512  0.00176  Biso   1.000  H
  C103     1.0000 0.52478  0.73018  0.01457  Biso   1.000  C
  H117     1.0000 0.47639  0.70722  0.98123  Biso   1.000  H
  H118     1.0000 0.55818  0.68919  0.01101  Biso   1.000  H
  C104     1.0000 0.54020  0.74018  0.10698  Biso   1.000  C
  N32      1.0000 0.60678  0.76719  0.15017  Biso   1.000  N
  H119     1.0000 0.53497  0.68672  0.13238  Biso   1.000  H
  H120     1.0000 0.50730  0.78092  0.11246  Biso   1.000  H
