data_image0
_cell_length_a       10.599
_cell_length_b       30.659
_cell_length_c       17.07
_cell_angle_alpha    90
_cell_angle_beta     107.57
_cell_angle_gamma    90

_symmetry_space_group_name_H-M    "P 1"
_symmetry_int_tables_number       1

loop_
  _symmetry_equiv_pos_as_xyz
  'x, y, z'

loop_
  _atom_site_label
  _atom_site_occupancy
  _atom_site_fract_x
  _atom_site_fract_y
  _atom_site_fract_z
  _atom_site_thermal_displace_type
  _atom_site_B_iso_or_equiv
  _atom_site_type_symbol
  C1       1.0000 0.65981  0.45941  0.48833  Biso   1.000  C
  C2       1.0000 0.60337  0.41518  0.50382  Biso   1.000  C
  C3       1.0000 0.65907  0.46606  0.39966  Biso   1.000  C
  H1       1.0000 0.75188  0.46199  0.52477  Biso   1.000  H
  H2       1.0000 0.60744  0.48299  0.50327  Biso   1.000  H
  C4       1.0000 0.68137  0.37734  0.48299  Biso   1.000  C
  C5       1.0000 0.59207  0.40980  0.59040  Biso   1.000  C
  H3       1.0000 0.51162  0.41329  0.46511  Biso   1.000  H
  H4       1.0000 0.71730  0.44339  0.38651  Biso   1.000  H
  C6       1.0000 0.52043  0.46130  0.33846  Biso   1.000  C
  C7       1.0000 0.71585  0.51078  0.39032  Biso   1.000  C
  C8       1.0000 0.61810  0.34316  0.43223  Biso   1.000  C
  C9       1.0000 0.81844  0.37562  0.51304  Biso   1.000  C
  C10      1.0000 0.49793  0.38129  0.60423  Biso   1.000  C
  C11      1.0000 0.67322  0.43152  0.65873  Biso   1.000  C
  H5       1.0000 0.48493  0.43240  0.34461  Biso   1.000  H
  H6       1.0000 0.46219  0.48381  0.34928  Biso   1.000  H
  H7       1.0000 0.52545  0.46459  0.28242  Biso   1.000  H
  H8       1.0000 0.80476  0.51349  0.42941  Biso   1.000  H
  H9       1.0000 0.72084  0.51401  0.33422  Biso   1.000  H
  H10      1.0000 0.65855  0.53361  0.40132  Biso   1.000  H
  O1       1.0000 0.48227  0.34492  0.40145  Biso   1.000  O
  C12      1.0000 0.68952  0.30872  0.41417  Biso   1.000  C
  C13      1.0000 0.89397  0.34267  0.49374  Biso   1.000  C
  H11      1.0000 0.86300  0.39819  0.54880  Biso   1.000  H
  O2       1.0000 0.41394  0.35657  0.54364  Biso   1.000  O
  C14      1.0000 0.48530  0.37620  0.68208  Biso   1.000  C
  C15      1.0000 0.66568  0.42647  0.73813  Biso   1.000  C
  H12      1.0000 0.73764  0.45109  0.65056  Biso   1.000  H
  H13      1.0000 0.45304  0.32049  0.38012  Biso   1.000  H
  H14      1.0000 0.64480  0.28520  0.38098  Biso   1.000  H
  C16      1.0000 0.82626  0.30872  0.44471  Biso   1.000  C
  C17      1.0000 0.04472  0.34434  0.52416  Biso   1.000  C
  H15      1.0000 0.44009  0.35660  0.50118  Biso   1.000  H
  C18      1.0000 0.56924  0.39780  0.74839  Biso   1.000  C
  H16      1.0000 0.41834  0.35771  0.68989  Biso   1.000  H
  C19      1.0000 0.75945  0.44943  0.81223  Biso   1.000  C
  O3       1.0000 0.90087  0.27532  0.42701  Biso   1.000  O
  C20      1.0000 0.09703  0.33142  0.61449  Biso   1.000  C
  C21      1.0000 0.09648  0.38856  0.50450  Biso   1.000  C
  H17      1.0000 0.07717  0.32180  0.49251  Biso   1.000  H
  O4       1.0000 0.55137  0.38912  0.82342  Biso   1.000  O
  C22      1.0000 0.87357  0.41903  0.85660  Biso   1.000  C
  C23      1.0000 0.81180  0.49336  0.79300  Biso   1.000  C
  H18      1.0000 0.70796  0.45540  0.85150  Biso   1.000  H
  H19      1.0000 0.84914  0.25568  0.39997  Biso   1.000  H
  C24      1.0000 0.11062  0.28719  0.63643  Biso   1.000  C
  C25      1.0000 0.12962  0.36166  0.67803  Biso   1.000  C
  C26      1.0000 0.05685  0.39903  0.41269  Biso   1.000  C
  H20      1.0000 0.19423  0.38869  0.52662  Biso   1.000  H
  H21      1.0000 0.06245  0.41179  0.53289  Biso   1.000  H
  H22      1.0000 0.62176  0.39538  0.86127  Biso   1.000  H
  C27      1.0000 0.87700  0.39763  0.92905  Biso   1.000  C
  C28      1.0000 0.97959  0.41234  0.82587  Biso   1.000  C
  C29      1.0000 0.89615  0.51786  0.86907  Biso   1.000  C
  H23      1.0000 0.86550  0.48840  0.75539  Biso   1.000  H
  H24      1.0000 0.73565  0.51199  0.76387  Biso   1.000  H
  O5       1.0000 0.07828  0.25369  0.58057  Biso   1.000  O
  C30      1.0000 0.15944  0.27516  0.71822  Biso   1.000  C
  C31      1.0000 0.17621  0.35070  0.76105  Biso   1.000  C
  H25      1.0000 0.11951  0.39170  0.66402  Biso   1.000  H
  H26      1.0000 0.95799  0.39890  0.39137  Biso   1.000  H
  C32      1.0000 0.10413  0.44470  0.39991  Biso   1.000  C
  C33      1.0000 0.10799  0.36554  0.36359  Biso   1.000  C
  O6       1.0000 0.77093  0.40331  0.95830  Biso   1.000  O
  C34      1.0000 0.98355  0.37138  0.96966  Biso   1.000  C
  C35      1.0000 0.08953  0.38736  0.86532  Biso   1.000  C
  H27      1.0000 0.97661  0.42568  0.77512  Biso   1.000  H
  H28      1.0000 0.97080  0.49829  0.89881  Biso   1.000  H
  C36      1.0000 0.95572  0.55869  0.84314  Biso   1.000  C
  C37      1.0000 0.81942  0.52950  0.92782  Biso   1.000  C
  H29      1.0000 0.03091  0.26309  0.53418  Biso   1.000  H
  H30      1.0000 0.17100  0.24508  0.73229  Biso   1.000  H
  C38      1.0000 0.19108  0.30617  0.77942  Biso   1.000  C
  C39      1.0000 0.20619  0.38403  0.83048  Biso   1.000  C
  H31      1.0000 0.06983  0.46580  0.43162  Biso   1.000  H
  H32      1.0000 0.20109  0.44538  0.41847  Biso   1.000  H
  H33      1.0000 0.07195  0.45220  0.34147  Biso   1.000  H
  H34      1.0000 0.07551  0.33651  0.37189  Biso   1.000  H
  H35      1.0000 0.07625  0.37301  0.30509  Biso   1.000  H
  H36      1.0000 0.20497  0.36560  0.38221  Biso   1.000  H
  H37      1.0000 0.78185  0.38850  0.00193  Biso   1.000  H
  C40      1.0000 0.08921  0.36694  0.93820  Biso   1.000  C
  H38      1.0000 0.98415  0.35660  0.01864  Biso   1.000  H
  H39      1.0000 0.88474  0.57911  0.81610  Biso   1.000  H
  H40      1.0000 0.00466  0.55061  0.80486  Biso   1.000  H
  H41      1.0000 0.01608  0.57259  0.89181  Biso   1.000  H
  H42      1.0000 0.78193  0.50298  0.94386  Biso   1.000  H
  H43      1.0000 0.87892  0.54340  0.97685  Biso   1.000  H
  H44      1.0000 0.74783  0.54969  0.90090  Biso   1.000  H
  O7       1.0000 0.23797  0.29075  0.85918  Biso   1.000  O
  C41      1.0000 0.24798  0.42901  0.80756  Biso   1.000  C
  H45      1.0000 0.28269  0.37229  0.87546  Biso   1.000  H
  O8       1.0000 0.19790  0.34186  0.97722  Biso   1.000  O
  H46      1.0000 0.22177  0.30869  0.89279  Biso   1.000  H
  C42      1.0000 0.28495  0.46159  0.87915  Biso   1.000  C
  H47      1.0000 0.32490  0.42529  0.78667  Biso   1.000  H
  H48      1.0000 0.17463  0.44131  0.76246  Biso   1.000  H
  H49      1.0000 0.18733  0.33060  0.02030  Biso   1.000  H
  H50      1.0000 0.20475  0.46600  0.89759  Biso   1.000  H
  C43      1.0000 0.32039  0.50556  0.84978  Biso   1.000  C
  C44      1.0000 0.39569  0.44525  0.95264  Biso   1.000  C
  H51      1.0000 0.24763  0.51551  0.80259  Biso   1.000  H
  H52      1.0000 0.33519  0.52689  0.89439  Biso   1.000  H
  H53      1.0000 0.40113  0.50259  0.83362  Biso   1.000  H
  H54      1.0000 0.41444  0.46711  0.99646  Biso   1.000  H
  H55      1.0000 0.36851  0.41789  0.97261  Biso   1.000  H
  H56      1.0000 0.47533  0.44020  0.93618  Biso   1.000  H
  C45      1.0000 0.34007  0.54059  0.51162  Biso   1.000  C
  C46      1.0000 0.39641  0.58482  0.49614  Biso   1.000  C
  C47      1.0000 0.34084  0.53394  0.60036  Biso   1.000  C
  H57      1.0000 0.24791  0.53798  0.47518  Biso   1.000  H
  H58      1.0000 0.39244  0.51701  0.49669  Biso   1.000  H
  C48      1.0000 0.40772  0.59020  0.40956  Biso   1.000  C
  C49      1.0000 0.31842  0.62266  0.51697  Biso   1.000  C
  H59      1.0000 0.48819  0.58671  0.53491  Biso   1.000  H
  H60      1.0000 0.28251  0.55661  0.61351  Biso   1.000  H
  C50      1.0000 0.47935  0.53870  0.66150  Biso   1.000  C
  C51      1.0000 0.28406  0.48922  0.60970  Biso   1.000  C
  C52      1.0000 0.32666  0.56845  0.34123  Biso   1.000  C
  C53      1.0000 0.50195  0.61871  0.39573  Biso   1.000  C
  C54      1.0000 0.38168  0.65681  0.56773  Biso   1.000  C
  C55      1.0000 0.18144  0.62438  0.48692  Biso   1.000  C
  H61      1.0000 0.51489  0.56760  0.65541  Biso   1.000  H
  H62      1.0000 0.53759  0.51619  0.65068  Biso   1.000  H
  H63      1.0000 0.47436  0.53541  0.71760  Biso   1.000  H
  H64      1.0000 0.19515  0.48651  0.57062  Biso   1.000  H
  H65      1.0000 0.27897  0.48599  0.66580  Biso   1.000  H
  H66      1.0000 0.34136  0.46639  0.59870  Biso   1.000  H
  C56      1.0000 0.33411  0.57353  0.26183  Biso   1.000  C
  H67      1.0000 0.26214  0.54891  0.34940  Biso   1.000  H
  C57      1.0000 0.51451  0.62376  0.31794  Biso   1.000  C
  O9       1.0000 0.58585  0.64343  0.45632  Biso   1.000  O
  O10      1.0000 0.51761  0.65504  0.59851  Biso   1.000  O
  C58      1.0000 0.31027  0.69128  0.58579  Biso   1.000  C
  C59      1.0000 0.10584  0.65733  0.50628  Biso   1.000  C
  H68      1.0000 0.13682  0.60178  0.45122  Biso   1.000  H
  C60      1.0000 0.24034  0.55057  0.18773  Biso   1.000  C
  C61      1.0000 0.43054  0.60220  0.25157  Biso   1.000  C
  H69      1.0000 0.58154  0.64229  0.31007  Biso   1.000  H
  H70      1.0000 0.55969  0.64340  0.49878  Biso   1.000  H
  H71      1.0000 0.54678  0.67951  0.61990  Biso   1.000  H
  H72      1.0000 0.35499  0.71480  0.61898  Biso   1.000  H
  C62      1.0000 0.17365  0.69128  0.55531  Biso   1.000  C
  C63      1.0000 0.95507  0.65566  0.47580  Biso   1.000  C
  C64      1.0000 0.18808  0.50664  0.20696  Biso   1.000  C
  C65      1.0000 0.12631  0.58097  0.14336  Biso   1.000  C
  H73      1.0000 0.29185  0.54460  0.14852  Biso   1.000  H
  O11      1.0000 0.44844  0.61088  0.17660  Biso   1.000  O
  O12      1.0000 0.09901  0.72468  0.57295  Biso   1.000  O
  C66      1.0000 0.90275  0.66858  0.38547  Biso   1.000  C
  C67      1.0000 0.90343  0.61144  0.49552  Biso   1.000  C
  H74      1.0000 0.92274  0.67820  0.50751  Biso   1.000  H
  C68      1.0000 0.10364  0.48214  0.13089  Biso   1.000  C
  H75      1.0000 0.13437  0.51160  0.24457  Biso   1.000  H
  H76      1.0000 0.26413  0.48798  0.23609  Biso   1.000  H
  C69      1.0000 0.12279  0.60237  0.07091  Biso   1.000  C
  C70      1.0000 0.02029  0.58763  0.17408  Biso   1.000  C
  H77      1.0000 0.37802  0.60459  0.13869  Biso   1.000  H
  H78      1.0000 0.15074  0.74428  0.59999  Biso   1.000  H
  C71      1.0000 0.87017  0.63834  0.32193  Biso   1.000  C
  C72      1.0000 0.88919  0.71281  0.36359  Biso   1.000  C
  C73      1.0000 0.94296  0.60093  0.58733  Biso   1.000  C
  H79      1.0000 0.80559  0.61131  0.47340  Biso   1.000  H
  H80      1.0000 0.93743  0.58821  0.46707  Biso   1.000  H
  C74      1.0000 0.04407  0.44131  0.15682  Biso   1.000  C
  H81      1.0000 0.02911  0.50171  0.10121  Biso   1.000  H
  C75      1.0000 0.18037  0.47047  0.07214  Biso   1.000  C
  O13      1.0000 0.22886  0.59666  0.04166  Biso   1.000  O
  C76      1.0000 0.01627  0.62862  0.03036  Biso   1.000  C
  H82      1.0000 0.02330  0.57428  0.22490  Biso   1.000  H
  C77      1.0000 0.91038  0.61264  0.13470  Biso   1.000  C
  C78      1.0000 0.82367  0.64930  0.23891  Biso   1.000  C
  H83      1.0000 0.88031  0.60830  0.33600  Biso   1.000  H
  C79      1.0000 0.84044  0.72484  0.28174  Biso   1.000  C
  O14      1.0000 0.92151  0.74631  0.41939  Biso   1.000  O
  H84      1.0000 0.04180  0.60110  0.60859  Biso   1.000  H
  C80      1.0000 0.89565  0.55530  0.60005  Biso   1.000  C
  C81      1.0000 0.89192  0.63446  0.63643  Biso   1.000  C
  H85      1.0000 0.11508  0.42089  0.18392  Biso   1.000  H
  H86      1.0000 0.99513  0.44939  0.19510  Biso   1.000  H
  H87      1.0000 0.98374  0.42741  0.10821  Biso   1.000  H
  H88      1.0000 0.21786  0.49698  0.05610  Biso   1.000  H
  H89      1.0000 0.12087  0.45660  0.02310  Biso   1.000  H
  H90      1.0000 0.25198  0.45031  0.09912  Biso   1.000  H
  H91      1.0000 0.21793  0.61150  0.99803  Biso   1.000  H
  C82      1.0000 0.91067  0.63306  0.06176  Biso   1.000  C
  H92      1.0000 0.01567  0.64340  0.98138  Biso   1.000  H
  C83      1.0000 0.79362  0.61597  0.16954  Biso   1.000  C
  C84      1.0000 0.80870  0.69383  0.22054  Biso   1.000  C
  H93      1.0000 0.82879  0.75488  0.26767  Biso   1.000  H
  H94      1.0000 0.96888  0.73688  0.46578  Biso   1.000  H
  H95      1.0000 0.92999  0.53420  0.56840  Biso   1.000  H
  H96      1.0000 0.79870  0.55458  0.58149  Biso   1.000  H
  H97      1.0000 0.92784  0.54780  0.65849  Biso   1.000  H
  H98      1.0000 0.92428  0.66349  0.62807  Biso   1.000  H
  H99      1.0000 0.92354  0.62699  0.69486  Biso   1.000  H
  H100     1.0000 0.79494  0.63440  0.61781  Biso   1.000  H
  O15      1.0000 0.80188  0.65814  0.02274  Biso   1.000  O
  C85      1.0000 0.75181  0.57099  0.19240  Biso   1.000  C
  H101     1.0000 0.71710  0.62771  0.12450  Biso   1.000  H
  O16      1.0000 0.76181  0.70922  0.14078  Biso   1.000  O
  H102     1.0000 0.81255  0.66940  0.97966  Biso   1.000  H
  C86      1.0000 0.71483  0.53841  0.12081  Biso   1.000  C
  H103     1.0000 0.67498  0.57471  0.21329  Biso   1.000  H
  H104     1.0000 0.82525  0.55869  0.23750  Biso   1.000  H
  H105     1.0000 0.77805  0.69128  0.10723  Biso   1.000  H
  H106     1.0000 0.79503  0.53400  0.10237  Biso   1.000  H
  C87      1.0000 0.67949  0.49444  0.15018  Biso   1.000  C
  C88      1.0000 0.60413  0.55475  0.04738  Biso   1.000  C
  H107     1.0000 0.75225  0.48449  0.19737  Biso   1.000  H
  H108     1.0000 0.66459  0.47311  0.10557  Biso   1.000  H
  H109     1.0000 0.59878  0.49741  0.16640  Biso   1.000  H
  H110     1.0000 0.58534  0.53289  0.00350  Biso   1.000  H
  H111     1.0000 0.63140  0.58208  0.02741  Biso   1.000  H
  H112     1.0000 0.52445  0.55980  0.06378  Biso   1.000  H
  O17      1.0000 0.73819  0.20924  0.35923  Biso   1.000  O
  C89      1.0000 0.69118  0.19381  0.27941  Biso   1.000  C
  H113     1.0000 0.72195  0.19130  0.39278  Biso   1.000  H
  C90      1.0000 0.65956  0.22486  0.21827  Biso   1.000  C
  C91      1.0000 0.67633  0.14929  0.26110  Biso   1.000  C
  C92      1.0000 0.61071  0.21282  0.13642  Biso   1.000  C
  H114     1.0000 0.67109  0.25490  0.23228  Biso   1.000  H
  C93      1.0000 0.62974  0.13836  0.17808  Biso   1.000  C
  C94      1.0000 0.70628  0.11599  0.33047  Biso   1.000  C
  O18      1.0000 0.57837  0.24632  0.08056  Biso   1.000  O
  C95      1.0000 0.59712  0.16856  0.11448  Biso   1.000  C
  H115     1.0000 0.61969  0.10829  0.16401  Biso   1.000  H
  C96      1.0000 0.58963  0.11263  0.36531  Biso   1.000  C
  C97      1.0000 0.74816  0.07101  0.30755  Biso   1.000  C
  H116     1.0000 0.78281  0.12769  0.37551  Biso   1.000  H
  H117     1.0000 0.53112  0.23690  0.03423  Biso   1.000  H
  C98      1.0000 0.54481  0.15568  0.02415  Biso   1.000  C
  C99      1.0000 0.58930  0.13308  0.43819  Biso   1.000  C
  C100     1.0000 0.47962  0.08764  0.32593  Biso   1.000  C
  C101     1.0000 0.78514  0.03842  0.37914  Biso   1.000  C
  H118     1.0000 0.82503  0.07469  0.28672  Biso   1.000  H
  H119     1.0000 0.67475  0.05871  0.26251  Biso   1.000  H
  C102     1.0000 0.59658  0.11145  0.00449  Biso   1.000  C
  C103     1.0000 0.39394  0.15734  0.99367  Biso   1.000  C
  H120     1.0000 0.57713  0.17819  0.99244  Biso   1.000  H
  O19      1.0000 0.69809  0.15816  0.47721  Biso   1.000  O
  C104     1.0000 0.48364  0.12864  0.46965  Biso   1.000  C
  C105     1.0000 0.37369  0.08096  0.35665  Biso   1.000  C
  H121     1.0000 0.47661  0.07430  0.27511  Biso   1.000  H
  H122     1.0000 0.70494  0.03399  0.39757  Biso   1.000  H
  C106     1.0000 0.89578  0.05476  0.45263  Biso   1.000  C
  C107     1.0000 0.82052  0.99442  0.34983  Biso   1.000  C
  H123     1.0000 0.69432  0.11129  0.02661  Biso   1.000  H
  H124     1.0000 0.56254  0.08820  0.03288  Biso   1.000  H
  C108     1.0000 0.55682  0.10095  0.91262  Biso   1.000  C
  C109     1.0000 0.31844  0.12440  0.01303  Biso   1.000  C
  C110     1.0000 0.32614  0.19130  0.94463  Biso   1.000  C
  H125     1.0000 0.68733  0.16941  0.52029  Biso   1.000  H
  H126     1.0000 0.48412  0.14338  0.51857  Biso   1.000  H
  C111     1.0000 0.37712  0.10238  0.42910  Biso   1.000  C
  C112     1.0000 0.25954  0.05056  0.31222  Biso   1.000  C
  H127     1.0000 0.91456  0.03291  0.49651  Biso   1.000  H
  H128     1.0000 0.86860  0.08210  0.47260  Biso   1.000  H
  H129     1.0000 0.97552  0.05979  0.43616  Biso   1.000  H
  H130     1.0000 0.74773  0.98451  0.30257  Biso   1.000  H
  H131     1.0000 0.83529  0.97309  0.39438  Biso   1.000  H
  H132     1.0000 0.90122  0.99739  0.33361  Biso   1.000  H
  H133     1.0000 0.45798  0.10111  0.89136  Biso   1.000  H
  C113     1.0000 0.60413  0.05529  0.89990  Biso   1.000  C
  C114     1.0000 0.60799  0.13448  0.86358  Biso   1.000  C
  H134     1.0000 0.36309  0.10180  0.04879  Biso   1.000  H
  C115     1.0000 0.18137  0.12264  0.98298  Biso   1.000  C
  O20      1.0000 0.40087  0.22466  0.92700  Biso   1.000  O
  C116     1.0000 0.18951  0.19127  0.91416  Biso   1.000  C
  O21      1.0000 0.27105  0.09668  0.45835  Biso   1.000  O
  C117     1.0000 0.16577  0.07355  0.23811  Biso   1.000  C
  C118     1.0000 0.31180  0.00662  0.29299  Biso   1.000  C
  H135     1.0000 0.20806  0.04459  0.35149  Biso   1.000  H
  H136     1.0000 0.56989  0.03422  0.93155  Biso   1.000  H
  H137     1.0000 0.70118  0.05460  0.91846  Biso   1.000  H
  H138     1.0000 0.57195  0.04778  0.84146  Biso   1.000  H
  H139     1.0000 0.57560  0.16351  0.87188  Biso   1.000  H
  H140     1.0000 0.57624  0.12701  0.80508  Biso   1.000  H
  H141     1.0000 0.70494  0.13441  0.88214  Biso   1.000  H
  C119     1.0000 0.10347  0.08480  0.00381  Biso   1.000  C
  C120     1.0000 0.11810  0.15682  0.93222  Biso   1.000  C
  H142     1.0000 0.34904  0.24430  0.89996  Biso   1.000  H
  H143     1.0000 0.14479  0.21481  0.88097  Biso   1.000  H
  H144     1.0000 0.28185  0.11148  0.50192  Biso   1.000  H
  C121     1.0000 0.17331  0.06846  0.15872  Biso   1.000  C
  C122     1.0000 0.06936  0.10219  0.24844  Biso   1.000  C
  H145     1.0000 0.36550  0.01161  0.25538  Biso   1.000  H
  C123     1.0000 0.39624  0.98216  0.36906  Biso   1.000  C
  H146     1.0000 0.23578  0.98800  0.26392  Biso   1.000  H
  C124     1.0000 0.09219  0.09019  0.09045  Biso   1.000  C
  C125     1.0000 0.15981  0.04058  0.98832  Biso   1.000  C
  H147     1.0000 0.01159  0.08670  0.96504  Biso   1.000  H
  O22      1.0000 0.98227  0.15506  0.90144  Biso   1.000  O
  H148     1.0000 0.23777  0.04889  0.15061  Biso   1.000  H
  C126     1.0000 0.98540  0.12378  0.18207  Biso   1.000  C
  O23      1.0000 0.05147  0.11086  0.32341  Biso   1.000  O
  H149     1.0000 0.47080  0.00170  0.39880  Biso   1.000  H
  C127     1.0000 0.45581  0.94129  0.34313  Biso   1.000  C
  C128     1.0000 0.31954  0.97048  0.42787  Biso   1.000  C
  C129     1.0000 0.99802  0.11873  0.10422  Biso   1.000  C
  H150     1.0000 0.25200  0.03800  0.02483  Biso   1.000  H
  H151     1.0000 0.10747  0.01699  0.00332  Biso   1.000  H
  C130     1.0000 0.15894  0.03395  0.89959  Biso   1.000  C
  H152     1.0000 0.95301  0.17949  0.88005  Biso   1.000  H
  H153     1.0000 0.91843  0.14231  0.18988  Biso   1.000  H
  H154     1.0000 0.12188  0.10460  0.36132  Biso   1.000  H
  H155     1.0000 0.50488  0.94938  0.30491  Biso   1.000  H
  H156     1.0000 0.38483  0.92090  0.31609  Biso   1.000  H
  H157     1.0000 0.51627  0.92739  0.39180  Biso   1.000  H
  H158     1.0000 0.28205  0.99700  0.44391  Biso   1.000  H
  H159     1.0000 0.37904  0.95659  0.47691  Biso   1.000  H
  H160     1.0000 0.24793  0.95029  0.40089  Biso   1.000  H
  O24      1.0000 0.91403  0.14345  0.04363  Biso   1.000  O
  C131     1.0000 0.21582  0.98920  0.89025  Biso   1.000  C
  H161     1.0000 0.21727  0.05659  0.88644  Biso   1.000  H
  C132     1.0000 0.02043  0.03868  0.83845  Biso   1.000  C
  H162     1.0000 0.94031  0.14338  0.00123  Biso   1.000  H
  H163     1.0000 0.30464  0.98650  0.92933  Biso   1.000  H
  H164     1.0000 0.22081  0.98601  0.83415  Biso   1.000  H
  H165     1.0000 0.15852  0.96640  0.90125  Biso   1.000  H
  H166     1.0000 0.98492  0.06761  0.84460  Biso   1.000  H
  H167     1.0000 0.96229  0.01621  0.84927  Biso   1.000  H
  H168     1.0000 0.02542  0.03539  0.78235  Biso   1.000  H
  O25      1.0000 0.26172  0.79076  0.64079  Biso   1.000  O
  H169     1.0000 0.27793  0.80870  0.60718  Biso   1.000  H
  C133     1.0000 0.30861  0.80619  0.72055  Biso   1.000  C
  C134     1.0000 0.34025  0.77514  0.78175  Biso   1.000  C
  C135     1.0000 0.32349  0.85068  0.73892  Biso   1.000  C
  C136     1.0000 0.38907  0.78718  0.86354  Biso   1.000  C
  H170     1.0000 0.32869  0.74510  0.76768  Biso   1.000  H
  C137     1.0000 0.37007  0.86164  0.82194  Biso   1.000  C
  C138     1.0000 0.29350  0.88401  0.66949  Biso   1.000  C
  O26      1.0000 0.42142  0.75368  0.91940  Biso   1.000  O
  C139     1.0000 0.40266  0.83140  0.88548  Biso   1.000  C
  H171     1.0000 0.38022  0.89168  0.83601  Biso   1.000  H
  C140     1.0000 0.41016  0.88734  0.63464  Biso   1.000  C
  C141     1.0000 0.25172  0.92899  0.69241  Biso   1.000  C
  H172     1.0000 0.21701  0.87231  0.62451  Biso   1.000  H
  H173     1.0000 0.46879  0.76310  0.96579  Biso   1.000  H
  C142     1.0000 0.45498  0.84432  0.97581  Biso   1.000  C
  C143     1.0000 0.41049  0.86692  0.56177  Biso   1.000  C
  C144     1.0000 0.52020  0.91236  0.67410  Biso   1.000  C
  C145     1.0000 0.21474  0.96158  0.62082  Biso   1.000  C
  H174     1.0000 0.17479  0.92531  0.71330  Biso   1.000  H
  H175     1.0000 0.32506  0.94129  0.73751  Biso   1.000  H
  C146     1.0000 0.40321  0.88855  0.99547  Biso   1.000  C
  C147     1.0000 0.60584  0.84266  0.00629  Biso   1.000  C
  H176     1.0000 0.42265  0.82178  0.00752  Biso   1.000  H
  O27      1.0000 0.30179  0.84184  0.52275  Biso   1.000  O
  C148     1.0000 0.51624  0.87136  0.53030  Biso   1.000  C
  C149     1.0000 0.62621  0.91904  0.64337  Biso   1.000  C
  H177     1.0000 0.52320  0.92570  0.72491  Biso   1.000  H
  H178     1.0000 0.29494  0.96598  0.60238  Biso   1.000  H
  C150     1.0000 0.10400  0.94524  0.54733  Biso   1.000  C
  C151     1.0000 0.17930  0.00558  0.65019  Biso   1.000  C
  H179     1.0000 0.30549  0.88868  0.97341  Biso   1.000  H
  H180     1.0000 0.43724  0.91180  0.96708  Biso   1.000  H
  C152     1.0000 0.44297  0.89905  0.08734  Biso   1.000  C
  C153     1.0000 0.68135  0.87560  0.98693  Biso   1.000  C
  C154     1.0000 0.67365  0.80870  0.05532  Biso   1.000  C
  H181     1.0000 0.31255  0.83059  0.47967  Biso   1.000  H
  H182     1.0000 0.51576  0.85658  0.48139  Biso   1.000  H
  C155     1.0000 0.62269  0.89762  0.57092  Biso   1.000  C
  C156     1.0000 0.74025  0.94941  0.68774  Biso   1.000  C
  H183     1.0000 0.08525  0.96709  0.50351  Biso   1.000  H
  H184     1.0000 0.13121  0.91790  0.52742  Biso   1.000  H
  H185     1.0000 0.02436  0.94018  0.56379  Biso   1.000  H
  H186     1.0000 0.25206  0.01549  0.69738  Biso   1.000  H
  H187     1.0000 0.16450  0.02691  0.60558  Biso   1.000  H
  H188     1.0000 0.09859  0.00261  0.66641  Biso   1.000  H
  H189     1.0000 0.54190  0.89889  0.10860  Biso   1.000  H
  C157     1.0000 0.39565  0.94468  0.10006  Biso   1.000  C
  C158     1.0000 0.39183  0.86552  0.13644  Biso   1.000  C
  H190     1.0000 0.63679  0.89820  0.95117  Biso   1.000  H
  C159     1.0000 0.81842  0.87733  0.01698  Biso   1.000  C
  O28      1.0000 0.59901  0.77530  0.07296  Biso   1.000  O
  C160     1.0000 0.81040  0.80870  0.08586  Biso   1.000  C
  O29      1.0000 0.72877  0.90332  0.54167  Biso   1.000  O
  C161     1.0000 0.83411  0.92645  0.76184  Biso   1.000  C
  C162     1.0000 0.68799  0.99338  0.70697  Biso   1.000  C
  H191     1.0000 0.79182  0.95538  0.64847  Biso   1.000  H
  H192     1.0000 0.42999  0.96578  0.06841  Biso   1.000  H
  H193     1.0000 0.29870  0.94540  0.08150  Biso   1.000  H
  H194     1.0000 0.42784  0.95218  0.15850  Biso   1.000  H
  H195     1.0000 0.42431  0.83649  0.12814  Biso   1.000  H
  H196     1.0000 0.42357  0.87299  0.19494  Biso   1.000  H
  H197     1.0000 0.29484  0.86559  0.11782  Biso   1.000  H
  C163     1.0000 0.89632  0.91520  0.99615  Biso   1.000  C
  C164     1.0000 0.88178  0.84318  0.06774  Biso   1.000  C
  H198     1.0000 0.65074  0.75570  0.10000  Biso   1.000  H
  H199     1.0000 0.85502  0.78519  0.11905  Biso   1.000  H
  H200     1.0000 0.71806  0.88848  0.49811  Biso   1.000  H
  C165     1.0000 0.93045  0.89778  0.75158  Biso   1.000  C
  C166     1.0000 0.82657  0.93154  0.84124  Biso   1.000  C
  H201     1.0000 0.63428  0.98839  0.74458  Biso   1.000  H
  C167     1.0000 0.60364  0.01784  0.63090  Biso   1.000  C
  H202     1.0000 0.76404  0.01200  0.73610  Biso   1.000  H
  C168     1.0000 0.90763  0.90981  0.90957  Biso   1.000  C
  C169     1.0000 0.84007  0.95942  0.01163  Biso   1.000  C
  H203     1.0000 0.98829  0.91330  0.03492  Biso   1.000  H
  O30      1.0000 0.01764  0.84494  0.09858  Biso   1.000  O
  O31      1.0000 0.94844  0.88914  0.67661  Biso   1.000  O
  C170     1.0000 0.01442  0.87622  0.81795  Biso   1.000  C
  H204     1.0000 0.76205  0.95111  0.84941  Biso   1.000  H
  H205     1.0000 0.52902  0.99830  0.60122  Biso   1.000  H
  C171     1.0000 0.54398  0.05871  0.65683  Biso   1.000  C
  C172     1.0000 0.68028  0.02952  0.57215  Biso   1.000  C
  C173     1.0000 0.00176  0.88127  0.89574  Biso   1.000  C
  H206     1.0000 0.74782  0.96200  0.97520  Biso   1.000  H
  H207     1.0000 0.89234  0.98301  0.99670  Biso   1.000  H
  C174     1.0000 0.84085  0.96605  0.10037  Biso   1.000  C
  H208     1.0000 0.04678  0.82051  0.11991  Biso   1.000  H
  H209     1.0000 0.87802  0.89540  0.63870  Biso   1.000  H
  H210     1.0000 0.08145  0.85769  0.81008  Biso   1.000  H
  H211     1.0000 0.49503  0.05059  0.69511  Biso   1.000  H
  H212     1.0000 0.61496  0.07910  0.68387  Biso   1.000  H
  H213     1.0000 0.48361  0.07261  0.60816  Biso   1.000  H
  H214     1.0000 0.71777  0.00300  0.55611  Biso   1.000  H
  H215     1.0000 0.62077  0.04341  0.52312  Biso   1.000  H
  H216     1.0000 0.75186  0.04971  0.59907  Biso   1.000  H
  O32      1.0000 0.08575  0.85655  0.95633  Biso   1.000  O
  H217     1.0000 0.78252  0.94341  0.11352  Biso   1.000  H
  C175     1.0000 0.97945  0.96132  0.16151  Biso   1.000  C
  C176     1.0000 0.78406  0.01080  0.10971  Biso   1.000  C
  H218     1.0000 0.05960  0.85658  0.99879  Biso   1.000  H
  H219     1.0000 0.97446  0.96458  0.21761  Biso   1.000  H
  H220     1.0000 0.01489  0.93239  0.15543  Biso   1.000  H
  H221     1.0000 0.03759  0.98379  0.15069  Biso   1.000  H
  H222     1.0000 0.69515  0.01350  0.07063  Biso   1.000  H
  H223     1.0000 0.77907  0.01399  0.16581  Biso   1.000  H
  H224     1.0000 0.84136  0.03360  0.09871  Biso   1.000  H
