data_image0
_cell_length_a       9.104
_cell_length_b       11.235
_cell_length_c       16.649
_cell_angle_alpha    71.53
_cell_angle_beta     84.1
_cell_angle_gamma    83.03

_symmetry_space_group_name_H-M    "P 1"
_symmetry_int_tables_number       1

loop_
  _symmetry_equiv_pos_as_xyz
  'x, y, z'

loop_
  _atom_site_label
  _atom_site_occupancy
  _atom_site_fract_x
  _atom_site_fract_y
  _atom_site_fract_z
  _atom_site_thermal_displace_type
  _atom_site_B_iso_or_equiv
  _atom_site_type_symbol
  C1       1.0000 0.86983  0.59902  0.24679  Biso   1.000  C
  C2       1.0000 0.01961  0.55831  0.24031  Biso   1.000  C
  C3       1.0000 0.77101  0.56003  0.20699  Biso   1.000  C
  C4       1.0000 0.12815  0.60359  0.28303  Biso   1.000  C
  C5       1.0000 0.06316  0.47759  0.19099  Biso   1.000  C
  C6       1.0000 0.81415  0.48312  0.15678  Biso   1.000  C
  Cl1      1.0000 0.58204  0.61120  0.21841  Biso   1.000  Cl
  O1       1.0000 0.13339  0.52142  0.36853  Biso   1.000  O
  C7       1.0000 0.96325  0.43963  0.15031  Biso   1.000  C
  O2       1.0000 0.21147  0.44166  0.17741  Biso   1.000  O
  C8       1.0000 0.24925  0.54286  0.41061  Biso   1.000  C
  C9       1.0000 0.01571  0.35541  0.09667  Biso   1.000  C
  C10      1.0000 0.28220  0.35030  0.24672  Biso   1.000  C
  C11      1.0000 0.24272  0.45272  0.49960  Biso   1.000  C
  O3       1.0000 0.89641  0.33199  0.05871  Biso   1.000  O
  N1       1.0000 0.29335  0.32169  0.50240  Biso   1.000  N
  C12      1.0000 0.94033  0.26034  0.00190  Biso   1.000  C
  C13      1.0000 0.19590  0.23406  0.55711  Biso   1.000  C
  C14      1.0000 0.44813  0.29170  0.52442  Biso   1.000  C
  C15      1.0000 0.80708  0.24695  0.96122  Biso   1.000  C
  C16      1.0000 0.05718  0.22999  0.51820  Biso   1.000  C
  C17      1.0000 0.51495  0.17027  0.50703  Biso   1.000  C
  N2       1.0000 0.71412  0.15330  0.01790  Biso   1.000  N
  O4       1.0000 0.08915  0.16263  0.45847  Biso   1.000  O
  C18      1.0000 0.76329  0.02834  0.00958  Biso   1.000  C
  C19      1.0000 0.55586  0.18292  0.00413  Biso   1.000  C
  C20      1.0000 0.96289  0.15576  0.41982  Biso   1.000  C
  C21      1.0000 0.74311  0.92231  0.09039  Biso   1.000  C
  C22      1.0000 0.49539  0.30220  0.03739  Biso   1.000  C
  C23      1.0000 0.00125  0.09098  0.35330  Biso   1.000  C
  O5       1.0000 0.84820  0.91862  0.14840  Biso   1.000  O
  C24      1.0000 0.89079  0.06747  0.31159  Biso   1.000  C
  C25      1.0000 0.14852  0.05001  0.33349  Biso   1.000  C
  C26      1.0000 0.79355  0.98579  0.20559  Biso   1.000  C
  O6       1.0000 0.74436  0.09740  0.33692  Biso   1.000  O
  C27      1.0000 0.91980  0.00834  0.24939  Biso   1.000  C
  C28      1.0000 0.17635  0.99159  0.27167  Biso   1.000  C
  C29      1.0000 0.67529  0.21256  0.28709  Biso   1.000  C
  C30      1.0000 0.06709  0.97001  0.22851  Biso   1.000  C
  Cl2      1.0000 0.36038  0.94123  0.24672  Biso   1.000  Cl
  C31      1.0000 0.13019  0.40103  0.75318  Biso   1.000  C
  C32      1.0000 0.22902  0.44003  0.79298  Biso   1.000  C
  C33      1.0000 0.98041  0.44171  0.75972  Biso   1.000  C
  Cl3      1.0000 0.41786  0.38882  0.78162  Biso   1.000  Cl
  C34      1.0000 0.18576  0.51694  0.84319  Biso   1.000  C
  C35      1.0000 0.93677  0.52238  0.80898  Biso   1.000  C
  C36      1.0000 0.87175  0.39643  0.71700  Biso   1.000  C
  C37      1.0000 0.03666  0.56039  0.84973  Biso   1.000  C
  O7       1.0000 0.78845  0.55827  0.82262  Biso   1.000  O
  O8       1.0000 0.86662  0.47861  0.63150  Biso   1.000  O
  C38      1.0000 0.98432  0.64464  0.90330  Biso   1.000  C
  C39      1.0000 0.71781  0.64972  0.75331  Biso   1.000  C
  C40      1.0000 0.75078  0.45707  0.58942  Biso   1.000  C
  O9       1.0000 0.10362  0.66795  0.94132  Biso   1.000  O
  C41      1.0000 0.75729  0.54730  0.50043  Biso   1.000  C
  C42      1.0000 0.05968  0.73969  0.99813  Biso   1.000  C
  N3       1.0000 0.70669  0.67827  0.49757  Biso   1.000  N
  C43      1.0000 0.19295  0.75299  0.03882  Biso   1.000  C
  C44      1.0000 0.80413  0.76588  0.44292  Biso   1.000  C
  C45      1.0000 0.55188  0.70832  0.47561  Biso   1.000  C
  N4       1.0000 0.28590  0.84675  0.98207  Biso   1.000  N
  C46      1.0000 0.94285  0.76995  0.48183  Biso   1.000  C
  C47      1.0000 0.48497  0.82967  0.49300  Biso   1.000  C
  C48      1.0000 0.23674  0.97171  0.99039  Biso   1.000  C
  C49      1.0000 0.44405  0.81710  0.99591  Biso   1.000  C
  O10      1.0000 0.91076  0.83742  0.54150  Biso   1.000  O
  C50      1.0000 0.25692  0.07774  0.90958  Biso   1.000  C
  C51      1.0000 0.50464  0.69785  0.96258  Biso   1.000  C
  C52      1.0000 0.03714  0.84418  0.58022  Biso   1.000  C
  O11      1.0000 0.15182  0.08140  0.85163  Biso   1.000  O
  C53      1.0000 0.99879  0.90899  0.64667  Biso   1.000  C
  C54      1.0000 0.20648  0.01417  0.79438  Biso   1.000  C
  C55      1.0000 0.10925  0.93249  0.68838  Biso   1.000  C
  C56      1.0000 0.85151  0.95005  0.66648  Biso   1.000  C
  C57      1.0000 0.08023  0.99172  0.75058  Biso   1.000  C
  O12      1.0000 0.25555  0.90263  0.66311  Biso   1.000  O
  C58      1.0000 0.82357  0.00837  0.72830  Biso   1.000  C
  C59      1.0000 0.93292  0.03001  0.77153  Biso   1.000  C
  C60      1.0000 0.32474  0.78740  0.71288  Biso   1.000  C
  Cl4      1.0000 0.63964  0.05880  0.75331  Biso   1.000  Cl
