data_image0
_cell_length_a       15.856
_cell_length_b       18.61
_cell_length_c       23.785
_cell_angle_alpha    90
_cell_angle_beta     107.41
_cell_angle_gamma    90

_symmetry_space_group_name_H-M    "P 1"
_symmetry_int_tables_number       1

loop_
  _symmetry_equiv_pos_as_xyz
  'x, y, z'

loop_
  _atom_site_label
  _atom_site_occupancy
  _atom_site_fract_x
  _atom_site_fract_y
  _atom_site_fract_z
  _atom_site_thermal_displace_type
  _atom_site_B_iso_or_equiv
  _atom_site_type_symbol
  C1       1.0000 0.53232  0.54240  0.54668  Biso   1.000  C
  C2       1.0000 0.56653  0.57292  0.60307  Biso   1.000  C
  H1       1.0000 0.47076  0.55400  0.53121  Biso   1.000  H
  H2       1.0000 0.56365  0.56131  0.52108  Biso   1.000  H
  H3       1.0000 0.53935  0.49119  0.54941  Biso   1.000  H
  C3       1.0000 0.57015  0.65422  0.60440  Biso   1.000  C
  H4       1.0000 0.62283  0.55110  0.62537  Biso   1.000  H
  C4       1.0000 0.49756  0.54739  0.61999  Biso   1.000  C
  C5       1.0000 0.63075  0.68678  0.57179  Biso   1.000  C
  C6       1.0000 0.59582  0.68571  0.66608  Biso   1.000  C
  H5       1.0000 0.51024  0.67120  0.58417  Biso   1.000  H
  H6       1.0000 0.47497  0.50451  0.59818  Biso   1.000  H
  H7       1.0000 0.51726  0.53649  0.66137  Biso   1.000  H
  H8       1.0000 0.45176  0.58302  0.61237  Biso   1.000  H
  C7       1.0000 0.60725  0.74831  0.53839  Biso   1.000  C
  C8       1.0000 0.71167  0.65578  0.57417  Biso   1.000  C
  C9       1.0000 0.55487  0.74788  0.67798  Biso   1.000  C
  C10      1.0000 0.65794  0.65422  0.71301  Biso   1.000  C
  O1       1.0000 0.52385  0.78109  0.53399  Biso   1.000  O
  C11      1.0000 0.65838  0.78060  0.50689  Biso   1.000  C
  C12      1.0000 0.76753  0.68538  0.54549  Biso   1.000  C
  H9       1.0000 0.72875  0.61392  0.59580  Biso   1.000  H
  O2       1.0000 0.48832  0.78028  0.63229  Biso   1.000  O
  C13      1.0000 0.57333  0.77872  0.73429  Biso   1.000  C
  H10      1.0000 0.68574  0.61231  0.70680  Biso   1.000  H
  C14      1.0000 0.68025  0.68307  0.76919  Biso   1.000  C
  P1       1.0000 0.51087  0.83348  0.58488  Biso   1.000  P
  C15      1.0000 0.73839  0.74718  0.51231  Biso   1.000  C
  C16      1.0000 0.62766  0.84481  0.46780  Biso   1.000  C
  C17      1.0000 0.85608  0.65099  0.54998  Biso   1.000  C
  C18      1.0000 0.63794  0.74460  0.77848  Biso   1.000  C
  C19      1.0000 0.52434  0.84438  0.74570  Biso   1.000  C
  C20      1.0000 0.75072  0.64670  0.82039  Biso   1.000  C
  Se1      1.0000 0.61280  0.90376  0.61947  Biso   1.000  Se
  C21      1.0000 0.40276  0.86792  0.54831  Biso   1.000  C
  O3       1.0000 0.79425  0.77910  0.48318  Biso   1.000  O
  H11      1.0000 0.65459  0.84428  0.43661  Biso   1.000  H
  H12      1.0000 0.56456  0.84320  0.45128  Biso   1.000  H
  H13      1.0000 0.64428  0.88802  0.49050  Biso   1.000  H
  C22      1.0000 0.92907  0.67942  0.60189  Biso   1.000  C
  H14      1.0000 0.87114  0.66609  0.51469  Biso   1.000  H
  C23      1.0000 0.85194  0.56840  0.54778  Biso   1.000  C
  O4       1.0000 0.65502  0.77088  0.83678  Biso   1.000  O
  H15      1.0000 0.53373  0.88372  0.72209  Biso   1.000  H
  H16      1.0000 0.46236  0.83401  0.73548  Biso   1.000  H
  H17      1.0000 0.54591  0.85717  0.78659  Biso   1.000  H
  C24      1.0000 0.84041  0.68012  0.82519  Biso   1.000  C
  H18      1.0000 0.73672  0.65862  0.85678  Biso   1.000  H
  C25      1.0000 0.75075  0.56389  0.81567  Biso   1.000  C
  C26      1.0000 0.39234  0.92939  0.51737  Biso   1.000  C
  C27      1.0000 0.32987  0.82998  0.54848  Biso   1.000  C
  P2       1.0000 0.87589  0.82891  0.51839  Biso   1.000  P
  C28      1.0000 0.97723  0.74041  0.59479  Biso   1.000  C
  C29      1.0000 0.95016  0.64992  0.65758  Biso   1.000  C
  H19      1.0000 0.80368  0.55379  0.51389  Biso   1.000  H
  H20      1.0000 0.83934  0.55089  0.58281  Biso   1.000  H
  C30      1.0000 0.93725  0.53342  0.54381  Biso   1.000  C
  P3       1.0000 0.73730  0.82155  0.86833  Biso   1.000  P
  C31      1.0000 0.87135  0.73992  0.86040  Biso   1.000  C
  C32      1.0000 0.89653  0.65099  0.79677  Biso   1.000  C
  H21      1.0000 0.79809  0.54498  0.84837  Biso   1.000  H
  H22      1.0000 0.76325  0.55073  0.77959  Biso   1.000  H
  C33      1.0000 0.66446  0.52869  0.81620  Biso   1.000  C
  H23      1.0000 0.44226  0.95481  0.51618  Biso   1.000  H
  C34      1.0000 0.31094  0.95578  0.48790  Biso   1.000  C
  C35      1.0000 0.24444  0.85599  0.51989  Biso   1.000  C
  H24      1.0000 0.33636  0.78598  0.56787  Biso   1.000  H
  Se2      1.0000 0.85374  0.88952  0.58452  Biso   1.000  Se
  O5       1.0000 0.95817  0.77421  0.53870  Biso   1.000  O
  C36      1.0000 0.90336  0.87260  0.46071  Biso   1.000  C
  C37      1.0000 0.04365  0.77088  0.64119  Biso   1.000  C
  H25      1.0000 0.91924  0.60951  0.66357  Biso   1.000  H
  C38      1.0000 0.01564  0.67818  0.70468  Biso   1.000  C
  H26      1.0000 0.98593  0.54901  0.57637  Biso   1.000  H
  H27      1.0000 0.93196  0.48211  0.54509  Biso   1.000  H
  H28      1.0000 0.94757  0.54713  0.50750  Biso   1.000  H
  Se3      1.0000 0.75897  0.90656  0.81937  Biso   1.000  Se
  O6       1.0000 0.81983  0.76862  0.89371  Biso   1.000  O
  C39      1.0000 0.71041  0.83831  0.93517  Biso   1.000  C
  C40      1.0000 0.95325  0.77190  0.86639  Biso   1.000  C
  H29      1.0000 0.87791  0.60999  0.77399  Biso   1.000  H
  C41      1.0000 0.97886  0.67877  0.80021  Biso   1.000  C
  H30      1.0000 0.61651  0.54879  0.78540  Biso   1.000  H
  H31      1.0000 0.66766  0.47792  0.80999  Biso   1.000  H
  H32      1.0000 0.65461  0.53708  0.85357  Biso   1.000  H
  H33      1.0000 0.30585  0.99747  0.46560  Biso   1.000  H
  C42      1.0000 0.23777  0.92128  0.49111  Biso   1.000  C
  H34      1.0000 0.19435  0.83031  0.52028  Biso   1.000  H
  C43      1.0000 0.97675  0.86260  0.44520  Biso   1.000  C
  C44      1.0000 0.84705  0.92268  0.42700  Biso   1.000  C
  C45      1.0000 0.06034  0.73842  0.69609  Biso   1.000  C
  C46      1.0000 0.09873  0.83412  0.63211  Biso   1.000  C
  C47      1.0000 0.03673  0.64481  0.76628  Biso   1.000  C
  C48      1.0000 0.63550  0.81789  0.94517  Biso   1.000  C
  C49      1.0000 0.76710  0.87539  0.97927  Biso   1.000  C
  C50      1.0000 0.98655  0.83638  0.90530  Biso   1.000  C
  C51      1.0000 0.00412  0.73998  0.83528  Biso   1.000  C
  H35      1.0000 0.18244  0.94148  0.47380  Biso   1.000  H
  C52      1.0000 0.99605  0.90371  0.40220  Biso   1.000  C
  H36      1.0000 0.01604  0.82671  0.46388  Biso   1.000  H
  C53      1.0000 0.87109  0.96061  0.38219  Biso   1.000  C
  H37      1.0000 0.79309  0.93192  0.43339  Biso   1.000  H
  O7       1.0000 0.12621  0.76781  0.74279  Biso   1.000  O
  H38      1.0000 0.07004  0.87818  0.63647  Biso   1.000  H
  H39      1.0000 0.15613  0.83208  0.66080  Biso   1.000  H
  H40      1.0000 0.10505  0.83181  0.59320  Biso   1.000  H
  H41      1.0000 0.09746  0.65948  0.78708  Biso   1.000  H
  C54      1.0000 0.03742  0.56158  0.76698  Biso   1.000  C
  H42      1.0000 0.59352  0.79398  0.91516  Biso   1.000  H
  C55      1.0000 0.61680  0.83031  0.99809  Biso   1.000  C
  H43      1.0000 0.82065  0.89060  0.97478  Biso   1.000  H
  C56      1.0000 0.74789  0.89221  0.03329  Biso   1.000  C
  H44      1.0000 0.97111  0.87947  0.88229  Biso   1.000  H
  H45      1.0000 0.96014  0.83708  0.93667  Biso   1.000  H
  H46      1.0000 0.04962  0.83348  0.92147  Biso   1.000  H
  O8       1.0000 0.08853  0.76921  0.84039  Biso   1.000  O
  C57      1.0000 0.94269  0.95502  0.37241  Biso   1.000  C
  H47      1.0000 0.04884  0.89522  0.39378  Biso   1.000  H
  H48      1.0000 0.82965  0.99189  0.35858  Biso   1.000  H
  P4       1.0000 0.10556  0.82149  0.79065  Biso   1.000  P
  H49      1.0000 0.97726  0.54412  0.75209  Biso   1.000  H
  H50      1.0000 0.06994  0.54422  0.74108  Biso   1.000  H
  C58      1.0000 0.07922  0.53208  0.82850  Biso   1.000  C
  H51      1.0000 0.56308  0.81542  0.00219  Biso   1.000  H
  C59      1.0000 0.67329  0.86222  0.04118  Biso   1.000  C
  H52      1.0000 0.78437  0.92208  0.06158  Biso   1.000  H
  H53      1.0000 0.95850  0.98479  0.34580  Biso   1.000  H
  Se4      1.0000 0.00958  0.89688  0.75681  Biso   1.000  Se
  C60      1.0000 0.21531  0.85008  0.82581  Biso   1.000  C
  H54      1.0000 0.04291  0.54401  0.85299  Biso   1.000  H
  H55      1.0000 0.08455  0.48082  0.82660  Biso   1.000  H
  H56      1.0000 0.13686  0.55282  0.84480  Biso   1.000  H
  H57      1.0000 0.66324  0.86502  0.07767  Biso   1.000  H
  C61      1.0000 0.23970  0.91789  0.82409  Biso   1.000  C
  C62      1.0000 0.28023  0.80269  0.85537  Biso   1.000  C
  H58      1.0000 0.19697  0.95239  0.80770  Biso   1.000  H
  C63      1.0000 0.32847  0.93923  0.84621  Biso   1.000  C
  C64      1.0000 0.36620  0.82289  0.87970  Biso   1.000  C
  H59      1.0000 0.26483  0.75508  0.85899  Biso   1.000  H
  H60      1.0000 0.34492  0.98641  0.84198  Biso   1.000  H
  C65      1.0000 0.39105  0.88882  0.87450  Biso   1.000  C
  H61      1.0000 0.40759  0.78931  0.89996  Biso   1.000  H
  H62      1.0000 0.45013  0.90188  0.88979  Biso   1.000  H
  C66      1.0000 0.46759  0.45760  0.45331  Biso   1.000  C
  C67      1.0000 0.43338  0.42708  0.39691  Biso   1.000  C
  H63      1.0000 0.52914  0.44600  0.46877  Biso   1.000  H
  H64      1.0000 0.43625  0.43869  0.47891  Biso   1.000  H
  H65      1.0000 0.46056  0.50881  0.45058  Biso   1.000  H
  C68      1.0000 0.42976  0.34578  0.39559  Biso   1.000  C
  H66      1.0000 0.37708  0.44890  0.37461  Biso   1.000  H
  C69      1.0000 0.50235  0.45261  0.37999  Biso   1.000  C
  C70      1.0000 0.40409  0.31429  0.33390  Biso   1.000  C
  C71      1.0000 0.36915  0.31322  0.42819  Biso   1.000  C
  H67      1.0000 0.48967  0.32880  0.41581  Biso   1.000  H
  H68      1.0000 0.52494  0.49549  0.40180  Biso   1.000  H
  H69      1.0000 0.48271  0.46351  0.33862  Biso   1.000  H
  H70      1.0000 0.54815  0.41698  0.38761  Biso   1.000  H
  C72      1.0000 0.34197  0.34578  0.28697  Biso   1.000  C
  C73      1.0000 0.44511  0.25212  0.32200  Biso   1.000  C
  C74      1.0000 0.39266  0.25169  0.46159  Biso   1.000  C
  C75      1.0000 0.28831  0.34422  0.42581  Biso   1.000  C
  C76      1.0000 0.31966  0.31693  0.23080  Biso   1.000  C
  H71      1.0000 0.31417  0.38769  0.29319  Biso   1.000  H
  C77      1.0000 0.42658  0.22128  0.26569  Biso   1.000  C
  O9       1.0000 0.51159  0.21972  0.36770  Biso   1.000  O
  O10      1.0000 0.47606  0.21891  0.46600  Biso   1.000  O
  C78      1.0000 0.34159  0.21940  0.49310  Biso   1.000  C
  C79      1.0000 0.23237  0.31462  0.45450  Biso   1.000  C
  H72      1.0000 0.27115  0.38608  0.40418  Biso   1.000  H
  C80      1.0000 0.36197  0.25540  0.22150  Biso   1.000  C
  C81      1.0000 0.24919  0.35330  0.17960  Biso   1.000  C
  C82      1.0000 0.47557  0.15562  0.25428  Biso   1.000  C
  P5       1.0000 0.48904  0.16652  0.41511  Biso   1.000  P
  C83      1.0000 0.26158  0.25282  0.48768  Biso   1.000  C
  C84      1.0000 0.37225  0.15519  0.53218  Biso   1.000  C
  C85      1.0000 0.14389  0.34901  0.45000  Biso   1.000  C
  O11      1.0000 0.34488  0.22912  0.16321  Biso   1.000  O
  C86      1.0000 0.15949  0.31988  0.17479  Biso   1.000  C
  H73      1.0000 0.26319  0.34138  0.14320  Biso   1.000  H
  C87      1.0000 0.24916  0.43611  0.18431  Biso   1.000  C
  H74      1.0000 0.46618  0.11628  0.27790  Biso   1.000  H
  H75      1.0000 0.53761  0.16599  0.26450  Biso   1.000  H
  H76      1.0000 0.45400  0.14283  0.21339  Biso   1.000  H
  Se5      1.0000 0.38711  0.09624  0.38052  Biso   1.000  Se
  C88      1.0000 0.59715  0.13208  0.45168  Biso   1.000  C
  O12      1.0000 0.20566  0.22090  0.51680  Biso   1.000  O
  H77      1.0000 0.34532  0.15572  0.56337  Biso   1.000  H
  H78      1.0000 0.43535  0.15680  0.54870  Biso   1.000  H
  H79      1.0000 0.35563  0.11198  0.50949  Biso   1.000  H
  C89      1.0000 0.07090  0.32058  0.39810  Biso   1.000  C
  H80      1.0000 0.12876  0.33391  0.48530  Biso   1.000  H
  C90      1.0000 0.14797  0.43160  0.45221  Biso   1.000  C
  P6       1.0000 0.26267  0.17845  0.13166  Biso   1.000  P
  C91      1.0000 0.12856  0.26008  0.13959  Biso   1.000  C
  C92      1.0000 0.10338  0.34901  0.20321  Biso   1.000  C
  H81      1.0000 0.20182  0.45502  0.15162  Biso   1.000  H
  H82      1.0000 0.23666  0.44927  0.22040  Biso   1.000  H
  C93      1.0000 0.33545  0.47131  0.18378  Biso   1.000  C
  C94      1.0000 0.60757  0.07061  0.48261  Biso   1.000  C
  C95      1.0000 0.67004  0.17002  0.45150  Biso   1.000  C
  P7       1.0000 0.12401  0.17109  0.48160  Biso   1.000  P
  C96      1.0000 0.04975  0.35008  0.34240  Biso   1.000  C
  C97      1.0000 0.02268  0.25959  0.40519  Biso   1.000  C
  H83      1.0000 0.19629  0.44621  0.48609  Biso   1.000  H
  H84      1.0000 0.16056  0.44911  0.41718  Biso   1.000  H
  C98      1.0000 0.06265  0.46658  0.45617  Biso   1.000  C
  Se6      1.0000 0.24094  0.09344  0.18061  Biso   1.000  Se
  O13      1.0000 0.18008  0.23138  0.10628  Biso   1.000  O
  C99      1.0000 0.28950  0.16169  0.06481  Biso   1.000  C
  C100     1.0000 0.04672  0.22810  0.13360  Biso   1.000  C
  H85      1.0000 0.12199  0.39001  0.22599  Biso   1.000  H
  C101     1.0000 0.02105  0.32123  0.19978  Biso   1.000  C
  H86      1.0000 0.38339  0.45121  0.21458  Biso   1.000  H
  H87      1.0000 0.33231  0.52208  0.18999  Biso   1.000  H
  H88      1.0000 0.34530  0.46292  0.14642  Biso   1.000  H
  H89      1.0000 0.55765  0.04519  0.48380  Biso   1.000  H
  C102     1.0000 0.68897  0.04422  0.51209  Biso   1.000  C
  C103     1.0000 0.75547  0.14401  0.48010  Biso   1.000  C
  H90      1.0000 0.66355  0.21402  0.43211  Biso   1.000  H
  Se7      1.0000 0.14617  0.11048  0.41546  Biso   1.000  Se
  O14      1.0000 0.04174  0.22579  0.46128  Biso   1.000  O
  C104     1.0000 0.09654  0.12740  0.53927  Biso   1.000  C
  C105     1.0000 0.98427  0.32182  0.29530  Biso   1.000  C
  H91      1.0000 0.08067  0.39049  0.33641  Biso   1.000  H
  C106     1.0000 0.95626  0.22912  0.35880  Biso   1.000  C
  H92      1.0000 0.01398  0.45099  0.42361  Biso   1.000  H
  H93      1.0000 0.06794  0.51789  0.45489  Biso   1.000  H
  H94      1.0000 0.05233  0.45287  0.49248  Biso   1.000  H
  C107     1.0000 0.36441  0.18211  0.05481  Biso   1.000  C
  C108     1.0000 0.23281  0.12461  0.02071  Biso   1.000  C
  C109     1.0000 0.01336  0.16362  0.09469  Biso   1.000  C
  C110     1.0000 0.99578  0.26002  0.16470  Biso   1.000  C
  C111     1.0000 0.96318  0.35519  0.23370  Biso   1.000  C
  H95      1.0000 0.69406  0.00253  0.53438  Biso   1.000  H
  C112     1.0000 0.76214  0.07872  0.50887  Biso   1.000  C
  H96      1.0000 0.80555  0.16969  0.47970  Biso   1.000  H
  C113     1.0000 0.02316  0.13740  0.55478  Biso   1.000  C
  C114     1.0000 0.15286  0.07732  0.57298  Biso   1.000  C
  C115     1.0000 0.93956  0.26158  0.30389  Biso   1.000  C
  C116     1.0000 0.90117  0.16588  0.36787  Biso   1.000  C
  H97      1.0000 0.40638  0.20602  0.08482  Biso   1.000  H
  C117     1.0000 0.38310  0.16969  0.00189  Biso   1.000  C
  H98      1.0000 0.17932  0.10940  0.02520  Biso   1.000  H
  C118     1.0000 0.25201  0.10779  0.96669  Biso   1.000  C
  H99      1.0000 0.02879  0.12053  0.11769  Biso   1.000  H
  H100     1.0000 0.03983  0.16292  0.06332  Biso   1.000  H
  H101     1.0000 0.95029  0.16652  0.07852  Biso   1.000  H
  O15      1.0000 0.91137  0.23079  0.15959  Biso   1.000  O
  H102     1.0000 0.90251  0.34052  0.21291  Biso   1.000  H
  C119     1.0000 0.96249  0.43842  0.23300  Biso   1.000  C
  H103     1.0000 0.81746  0.05852  0.52619  Biso   1.000  H
  C120     1.0000 0.00386  0.09629  0.59779  Biso   1.000  C
  H104     1.0000 0.98387  0.17329  0.53610  Biso   1.000  H
  C121     1.0000 0.12882  0.03939  0.61779  Biso   1.000  C
  H105     1.0000 0.20688  0.06808  0.56659  Biso   1.000  H
  O16      1.0000 0.87370  0.23219  0.25719  Biso   1.000  O
  H106     1.0000 0.92987  0.12182  0.36351  Biso   1.000  H
  H107     1.0000 0.84377  0.16792  0.33919  Biso   1.000  H
  H108     1.0000 0.89486  0.16819  0.40678  Biso   1.000  H
  H109     1.0000 0.43683  0.18458  0.99780  Biso   1.000  H
  C122     1.0000 0.32668  0.13778  0.95880  Biso   1.000  C
  H110     1.0000 0.21554  0.07792  0.93840  Biso   1.000  H
  P8       1.0000 0.89435  0.17851  0.20934  Biso   1.000  P
  H111     1.0000 0.02265  0.45588  0.24789  Biso   1.000  H
  H112     1.0000 0.92997  0.45578  0.25891  Biso   1.000  H
  C123     1.0000 0.92069  0.46792  0.17149  Biso   1.000  C
  C124     1.0000 0.05722  0.04498  0.62757  Biso   1.000  C
  H113     1.0000 0.95107  0.10478  0.60620  Biso   1.000  H
  H114     1.0000 0.17026  0.00811  0.64141  Biso   1.000  H
  H115     1.0000 0.33667  0.13498  0.92232  Biso   1.000  H
  Se8      1.0000 0.99033  0.10312  0.24318  Biso   1.000  Se
  C125     1.0000 0.78460  0.14992  0.17418  Biso   1.000  C
  H116     1.0000 0.95699  0.45599  0.14699  Biso   1.000  H
  H117     1.0000 0.91536  0.51918  0.17338  Biso   1.000  H
  H118     1.0000 0.86311  0.44718  0.15519  Biso   1.000  H
  H119     1.0000 0.04147  0.01521  0.65419  Biso   1.000  H
  C126     1.0000 0.76020  0.08211  0.17589  Biso   1.000  C
  C127     1.0000 0.71967  0.19731  0.14461  Biso   1.000  C
  H120     1.0000 0.80300  0.04761  0.19229  Biso   1.000  H
  C128     1.0000 0.67150  0.06077  0.15378  Biso   1.000  C
  C129     1.0000 0.63371  0.17711  0.12029  Biso   1.000  C
  H121     1.0000 0.73508  0.24492  0.14100  Biso   1.000  H
  H122     1.0000 0.65499  0.01359  0.15801  Biso   1.000  H
  C130     1.0000 0.60886  0.11118  0.12549  Biso   1.000  C
  H123     1.0000 0.59230  0.21069  0.09998  Biso   1.000  H
  H124     1.0000 0.54978  0.09812  0.11020  Biso   1.000  H
  C131     1.0000 0.48658  0.66362  0.40528  Biso   1.000  C
  C132     1.0000 0.45329  0.72810  0.36637  Biso   1.000  C
  H125     1.0000 0.47115  0.62053  0.38228  Biso   1.000  H
  H126     1.0000 0.46019  0.66292  0.43670  Biso   1.000  H
  H127     1.0000 0.54967  0.66652  0.42150  Biso   1.000  H
  C133     1.0000 0.37139  0.76008  0.36038  Biso   1.000  C
  C134     1.0000 0.50418  0.76002  0.33531  Biso   1.000  C
  O17      1.0000 0.31986  0.73138  0.39369  Biso   1.000  O
  C135     1.0000 0.34045  0.81988  0.32518  Biso   1.000  C
  O18      1.0000 0.58857  0.73079  0.34038  Biso   1.000  O
  C136     1.0000 0.47890  0.82123  0.30019  Biso   1.000  C
  P9       1.0000 0.23729  0.67845  0.36836  Biso   1.000  P
  C137     1.0000 0.39658  0.84901  0.29680  Biso   1.000  C
  C138     1.0000 0.25076  0.85330  0.32037  Biso   1.000  C
  P10      1.0000 0.60562  0.67851  0.29068  Biso   1.000  P
  C139     1.0000 0.53678  0.85519  0.26631  Biso   1.000  C
  Se9      1.0000 0.25902  0.59344  0.31940  Biso   1.000  Se
  O19      1.0000 0.15508  0.72912  0.33681  Biso   1.000  O
  C140     1.0000 0.21047  0.66169  0.43520  Biso   1.000  C
  H128     1.0000 0.37795  0.89001  0.27398  Biso   1.000  H
  C141     1.0000 0.18029  0.81693  0.26917  Biso   1.000  C
  H129     1.0000 0.23678  0.84138  0.35681  Biso   1.000  H
  C142     1.0000 0.25080  0.93611  0.31570  Biso   1.000  C
  Se10     1.0000 0.50964  0.60312  0.25684  Biso   1.000  Se
  O20      1.0000 0.62625  0.73219  0.24278  Biso   1.000  O
  C143     1.0000 0.71535  0.64992  0.32579  Biso   1.000  C
  C144     1.0000 0.51569  0.82182  0.20471  Biso   1.000  C
  H130     1.0000 0.59745  0.84052  0.28711  Biso   1.000  H
  C145     1.0000 0.53748  0.93842  0.26701  Biso   1.000  C
  C146     1.0000 0.13800  0.75540  0.27852  Biso   1.000  C
  C147     1.0000 0.13555  0.68211  0.44520  Biso   1.000  C
  C148     1.0000 0.26716  0.62461  0.47930  Biso   1.000  C
  C149     1.0000 0.15797  0.84578  0.21300  Biso   1.000  C
  H131     1.0000 0.29815  0.95502  0.34840  Biso   1.000  H
  H132     1.0000 0.26330  0.94927  0.27962  Biso   1.000  H
  C150     1.0000 0.16449  0.97131  0.31619  Biso   1.000  C
  C151     1.0000 0.56038  0.76158  0.19608  Biso   1.000  C
  C152     1.0000 0.73974  0.58211  0.32407  Biso   1.000  C
  C153     1.0000 0.78029  0.69731  0.35540  Biso   1.000  C
  C154     1.0000 0.45022  0.85008  0.15761  Biso   1.000  C
  H133     1.0000 0.57000  0.95578  0.24111  Biso   1.000  H
  H134     1.0000 0.47729  0.95588  0.25208  Biso   1.000  H
  C155     1.0000 0.57926  0.96792  0.32848  Biso   1.000  C
  C156     1.0000 0.07336  0.72128  0.23428  Biso   1.000  C
  H135     1.0000 0.09358  0.70602  0.41519  Biso   1.000  H
  C157     1.0000 0.11684  0.66969  0.49808  Biso   1.000  C
  C158     1.0000 0.24787  0.60779  0.53328  Biso   1.000  C
  H136     1.0000 0.32064  0.60940  0.47481  Biso   1.000  H
  C159     1.0000 0.09587  0.81429  0.16611  Biso   1.000  C
  H137     1.0000 0.18577  0.88769  0.20678  Biso   1.000  H
  H138     1.0000 0.11655  0.95121  0.28539  Biso   1.000  H
  H139     1.0000 0.15467  0.96292  0.35360  Biso   1.000  H
  H140     1.0000 0.16770  0.02208  0.30998  Biso   1.000  H
  C160     1.0000 0.54371  0.72912  0.14122  Biso   1.000  C
  H141     1.0000 0.69694  0.54761  0.30768  Biso   1.000  H
  C161     1.0000 0.82850  0.56077  0.34619  Biso   1.000  C
  C162     1.0000 0.86624  0.67711  0.37968  Biso   1.000  C
  H142     1.0000 0.76488  0.74492  0.35902  Biso   1.000  H
  H143     1.0000 0.41929  0.89049  0.16360  Biso   1.000  H
  C163     1.0000 0.42913  0.82058  0.10192  Biso   1.000  C
  H144     1.0000 0.54295  0.95599  0.35298  Biso   1.000  H
  H145     1.0000 0.63684  0.94718  0.34478  Biso   1.000  H
  H146     1.0000 0.58459  0.01918  0.32659  Biso   1.000  H
  C164     1.0000 0.05492  0.75212  0.17801  Biso   1.000  C
  C165     1.0000 0.02437  0.65562  0.24569  Biso   1.000  C
  H147     1.0000 0.06305  0.68458  0.50217  Biso   1.000  H
  C166     1.0000 0.17329  0.63778  0.54121  Biso   1.000  C
  H148     1.0000 0.28436  0.57792  0.56161  Biso   1.000  H
  C167     1.0000 0.07019  0.84578  0.10438  Biso   1.000  C
  C168     1.0000 0.47726  0.75959  0.09478  Biso   1.000  C
  C169     1.0000 0.59877  0.66588  0.13210  Biso   1.000  C
  H149     1.0000 0.84498  0.51359  0.34201  Biso   1.000  H
  C170     1.0000 0.89109  0.61118  0.37448  Biso   1.000  C
  H150     1.0000 0.90764  0.71069  0.39999  Biso   1.000  H
  C171     1.0000 0.35607  0.84901  0.05001  Biso   1.000  C
  O21      1.0000 0.98837  0.71972  0.13232  Biso   1.000  O
  H151     1.0000 0.03379  0.61628  0.22212  Biso   1.000  H
  H152     1.0000 0.04594  0.64283  0.28658  Biso   1.000  H
  H153     1.0000 0.96241  0.66599  0.23551  Biso   1.000  H
  H154     1.0000 0.16323  0.63498  0.57770  Biso   1.000  H
  C172     1.0000 0.13081  0.81322  0.07182  Biso   1.000  C
  H155     1.0000 0.01029  0.82880  0.08420  Biso   1.000  H
  C173     1.0000 0.06658  0.92708  0.10310  Biso   1.000  C
  O22      1.0000 0.45821  0.72579  0.03869  Biso   1.000  O
  H156     1.0000 0.57010  0.62182  0.13650  Biso   1.000  H
  H157     1.0000 0.65617  0.66792  0.16078  Biso   1.000  H
  H158     1.0000 0.60508  0.66819  0.09319  Biso   1.000  H
  H159     1.0000 0.95019  0.59812  0.38982  Biso   1.000  H
  C174     1.0000 0.26759  0.81462  0.04552  Biso   1.000  C
  H160     1.0000 0.37120  0.83391  0.01472  Biso   1.000  H
  C175     1.0000 0.35199  0.93160  0.04781  Biso   1.000  C
  P11      1.0000 0.01091  0.66652  0.08486  Biso   1.000  P
  C176     1.0000 0.10729  0.75169  0.03838  Biso   1.000  C
  C177     1.0000 0.21172  0.84422  0.07420  Biso   1.000  C
  H161     1.0000 0.12288  0.94890  0.12540  Biso   1.000  H
  C178     1.0000 0.03238  0.95760  0.04671  Biso   1.000  C
  C179     1.0000 0.99759  0.95261  0.11998  Biso   1.000  C
  P12      1.0000 0.37593  0.67109  0.01837  Biso   1.000  P
  C180     1.0000 0.23843  0.75282  0.01229  Biso   1.000  C
  H162     1.0000 0.30372  0.94621  0.01388  Biso   1.000  H
  H163     1.0000 0.33938  0.94911  0.08279  Biso   1.000  H
  C181     1.0000 0.43729  0.96658  0.04380  Biso   1.000  C
  Se11     1.0000 0.11285  0.59624  0.11950  Biso   1.000  Se
  O23      1.0000 0.02391  0.71891  0.03402  Biso   1.000  O
  C182     1.0000 0.90279  0.63208  0.04829  Biso   1.000  C
  C183     1.0000 0.15838  0.71940  0.00692  Biso   1.000  C
  H164     1.0000 0.22879  0.88608  0.09579  Biso   1.000  H
  H165     1.0000 0.06371  0.93869  0.02111  Biso   1.000  H
  H166     1.0000 0.97080  0.94600  0.03120  Biso   1.000  H
  H167     1.0000 0.03939  0.00881  0.04939  Biso   1.000  H
  H168     1.0000 0.01726  0.96351  0.16140  Biso   1.000  H
  H169     1.0000 0.97502  0.99549  0.09821  Biso   1.000  H
  H170     1.0000 0.95181  0.91698  0.11240  Biso   1.000  H
  O24      1.0000 0.29424  0.72090  0.98321  Biso   1.000  O
  Se12     1.0000 0.35379  0.61048  0.08455  Biso   1.000  Se
  C184     1.0000 0.40334  0.62740  0.96070  Biso   1.000  C
  H171     1.0000 0.48598  0.95099  0.07640  Biso   1.000  H
  H172     1.0000 0.44761  0.95287  0.00749  Biso   1.000  H
  H173     1.0000 0.43202  0.01789  0.04512  Biso   1.000  H
  C185     1.0000 0.89240  0.57061  0.01740  Biso   1.000  C
  C186     1.0000 0.82992  0.67002  0.04851  Biso   1.000  C
  C187     1.0000 0.12763  0.65519  0.96779  Biso   1.000  C
  C188     1.0000 0.47672  0.63740  0.94519  Biso   1.000  C
  C189     1.0000 0.34702  0.57732  0.92699  Biso   1.000  C
  C190     1.0000 0.81097  0.54422  0.98788  Biso   1.000  C
  H174     1.0000 0.94232  0.54519  0.01621  Biso   1.000  H
  C191     1.0000 0.74450  0.64401  0.01992  Biso   1.000  C
  H175     1.0000 0.83642  0.71402  0.06790  Biso   1.000  H
  H176     1.0000 0.15456  0.65572  0.93659  Biso   1.000  H
  H177     1.0000 0.06455  0.65680  0.95131  Biso   1.000  H
  H178     1.0000 0.14425  0.61198  0.99048  Biso   1.000  H
  H179     1.0000 0.51603  0.67329  0.96391  Biso   1.000  H
  C192     1.0000 0.49602  0.59629  0.90218  Biso   1.000  C
  C193     1.0000 0.37108  0.53939  0.88222  Biso   1.000  C
  H180     1.0000 0.29309  0.56808  0.93342  Biso   1.000  H
  H181     1.0000 0.80582  0.50253  0.96559  Biso   1.000  H
  C194     1.0000 0.73774  0.57872  0.99110  Biso   1.000  C
  H182     1.0000 0.69441  0.66969  0.02031  Biso   1.000  H
  H183     1.0000 0.54883  0.60478  0.89381  Biso   1.000  H
  C195     1.0000 0.44266  0.54498  0.87240  Biso   1.000  C
  H184     1.0000 0.32964  0.50811  0.85861  Biso   1.000  H
  H185     1.0000 0.68242  0.55852  0.97378  Biso   1.000  H
  H186     1.0000 0.45847  0.51521  0.84578  Biso   1.000  H
  C196     1.0000 0.51333  0.33638  0.59470  Biso   1.000  C
  C197     1.0000 0.54668  0.27190  0.63361  Biso   1.000  C
  H187     1.0000 0.52876  0.37947  0.61770  Biso   1.000  H
  H188     1.0000 0.53978  0.33708  0.56329  Biso   1.000  H
  H189     1.0000 0.45023  0.33348  0.57849  Biso   1.000  H
  C198     1.0000 0.49573  0.23998  0.66467  Biso   1.000  C
  C199     1.0000 0.62858  0.23992  0.63960  Biso   1.000  C
  O25      1.0000 0.41134  0.26921  0.65961  Biso   1.000  O
  C200     1.0000 0.52107  0.17877  0.69979  Biso   1.000  C
  O26      1.0000 0.68004  0.26862  0.60629  Biso   1.000  O
  C201     1.0000 0.65946  0.18012  0.67481  Biso   1.000  C
  P13      1.0000 0.39429  0.32149  0.70931  Biso   1.000  P
  C202     1.0000 0.60332  0.15099  0.70318  Biso   1.000  C
  C203     1.0000 0.46312  0.14481  0.73367  Biso   1.000  C
  P14      1.0000 0.76262  0.32155  0.63163  Biso   1.000  P
  C204     1.0000 0.74915  0.14670  0.67961  Biso   1.000  C
  Se13     1.0000 0.49027  0.39688  0.74315  Biso   1.000  Se
  O27      1.0000 0.37366  0.26781  0.75720  Biso   1.000  O
  C205     1.0000 0.28456  0.35008  0.67419  Biso   1.000  C
  H190     1.0000 0.62196  0.10999  0.72601  Biso   1.000  H
  C206     1.0000 0.48421  0.17818  0.79527  Biso   1.000  C
  H191     1.0000 0.40245  0.15948  0.71288  Biso   1.000  H
  C207     1.0000 0.46243  0.06158  0.73297  Biso   1.000  C
  Se14     1.0000 0.74088  0.40656  0.68058  Biso   1.000  Se
  O28      1.0000 0.84483  0.27088  0.66318  Biso   1.000  O
  C208     1.0000 0.78944  0.33831  0.56478  Biso   1.000  C
  C209     1.0000 0.81962  0.18307  0.73081  Biso   1.000  C
  H192     1.0000 0.76313  0.15862  0.64317  Biso   1.000  H
  C210     1.0000 0.74917  0.06389  0.68428  Biso   1.000  C
  C211     1.0000 0.43953  0.23842  0.80391  Biso   1.000  C
  C212     1.0000 0.26017  0.41789  0.67591  Biso   1.000  C
  C213     1.0000 0.21962  0.30269  0.64458  Biso   1.000  C
  C214     1.0000 0.54975  0.14992  0.84237  Biso   1.000  C
  H193     1.0000 0.42991  0.04422  0.75888  Biso   1.000  H
  H194     1.0000 0.52268  0.04412  0.74791  Biso   1.000  H
  C215     1.0000 0.42065  0.03208  0.67150  Biso   1.000  C
  C216     1.0000 0.86191  0.24460  0.72147  Biso   1.000  C
  C217     1.0000 0.86435  0.31789  0.55478  Biso   1.000  C
  C218     1.0000 0.73275  0.37539  0.52068  Biso   1.000  C
  C219     1.0000 0.84194  0.15422  0.78699  Biso   1.000  C
  H195     1.0000 0.70176  0.04498  0.65159  Biso   1.000  H
  H196     1.0000 0.73660  0.05073  0.72037  Biso   1.000  H
  C220     1.0000 0.83548  0.02869  0.68380  Biso   1.000  C
  C221     1.0000 0.45620  0.27088  0.85877  Biso   1.000  C
  H197     1.0000 0.30297  0.45239  0.69230  Biso   1.000  H
  C222     1.0000 0.17147  0.43923  0.65379  Biso   1.000  C
  C223     1.0000 0.13367  0.32289  0.62030  Biso   1.000  C
  H198     1.0000 0.23502  0.25508  0.64097  Biso   1.000  H
  H199     1.0000 0.58062  0.10951  0.83638  Biso   1.000  H
  C224     1.0000 0.57084  0.17942  0.89807  Biso   1.000  C
  H200     1.0000 0.45696  0.04401  0.64700  Biso   1.000  H
  H201     1.0000 0.36307  0.05282  0.65520  Biso   1.000  H
  H202     1.0000 0.41532  0.98082  0.67340  Biso   1.000  H
  C225     1.0000 0.92654  0.27872  0.76571  Biso   1.000  C
  H203     1.0000 0.90633  0.29398  0.58479  Biso   1.000  H
  C226     1.0000 0.88307  0.33031  0.50191  Biso   1.000  C
  C227     1.0000 0.75204  0.39221  0.46670  Biso   1.000  C
  H204     1.0000 0.67927  0.39060  0.52517  Biso   1.000  H
  C228     1.0000 0.90403  0.18571  0.83387  Biso   1.000  C
  H205     1.0000 0.81414  0.11231  0.79320  Biso   1.000  H
  H206     1.0000 0.88336  0.04879  0.71460  Biso   1.000  H
  H207     1.0000 0.84524  0.03708  0.64639  Biso   1.000  H
  H208     1.0000 0.83227  0.97792  0.69001  Biso   1.000  H
  C229     1.0000 0.52264  0.24041  0.90521  Biso   1.000  C
  C230     1.0000 0.40114  0.33412  0.86789  Biso   1.000  C
  H209     1.0000 0.15493  0.48641  0.65798  Biso   1.000  H
  C231     1.0000 0.10888  0.38882  0.62550  Biso   1.000  C
  H210     1.0000 0.09226  0.28931  0.59999  Biso   1.000  H
  C232     1.0000 0.64383  0.15099  0.94997  Biso   1.000  C
  C233     1.0000 0.94505  0.24788  0.82197  Biso   1.000  C
  C234     1.0000 0.97553  0.34438  0.75430  Biso   1.000  C
  H211     1.0000 0.93685  0.31542  0.49781  Biso   1.000  H
  C235     1.0000 0.82662  0.36222  0.45877  Biso   1.000  C
  H212     1.0000 0.71555  0.42208  0.43837  Biso   1.000  H
  C236     1.0000 0.92972  0.15422  0.89560  Biso   1.000  C
  O29      1.0000 0.54170  0.27421  0.96130  Biso   1.000  O
  H213     1.0000 0.42981  0.37818  0.86348  Biso   1.000  H
  H214     1.0000 0.34374  0.33208  0.83920  Biso   1.000  H
  H215     1.0000 0.39482  0.33181  0.90679  Biso   1.000  H
  H216     1.0000 0.04972  0.40188  0.61017  Biso   1.000  H
  C237     1.0000 0.73232  0.18538  0.95447  Biso   1.000  C
  H217     1.0000 0.62871  0.16609  0.98527  Biso   1.000  H
  C238     1.0000 0.64791  0.06840  0.95218  Biso   1.000  C
  O30      1.0000 0.01153  0.28028  0.86767  Biso   1.000  O
  H218     1.0000 0.96612  0.38372  0.77787  Biso   1.000  H
  H219     1.0000 0.95396  0.35717  0.71341  Biso   1.000  H
  H220     1.0000 0.03756  0.33401  0.76447  Biso   1.000  H
  H221     1.0000 0.83667  0.36502  0.42229  Biso   1.000  H
  C239     1.0000 0.86910  0.18678  0.92816  Biso   1.000  C
  H222     1.0000 0.98961  0.17120  0.91578  Biso   1.000  H
  C240     1.0000 0.93332  0.07292  0.89688  Biso   1.000  C
  P15      1.0000 0.62398  0.32891  0.98161  Biso   1.000  P
  C241     1.0000 0.76154  0.24718  0.98769  Biso   1.000  C
  C242     1.0000 0.78825  0.15578  0.92578  Biso   1.000  C
  H223     1.0000 0.69625  0.05379  0.98610  Biso   1.000  H
  H224     1.0000 0.66053  0.05089  0.91719  Biso   1.000  H
  C243     1.0000 0.56262  0.03342  0.95619  Biso   1.000  C
  P16      1.0000 0.98900  0.33348  0.91512  Biso   1.000  P
  C244     1.0000 0.89262  0.24831  0.96161  Biso   1.000  C
  H225     1.0000 0.87702  0.05110  0.87458  Biso   1.000  H
  C245     1.0000 0.96753  0.04240  0.95328  Biso   1.000  C
  C246     1.0000 0.00231  0.04739  0.88000  Biso   1.000  C
  Se15     1.0000 0.64611  0.38952  0.91543  Biso   1.000  Se
  O31      1.0000 0.70566  0.27910  0.01677  Biso   1.000  O
  C247     1.0000 0.59657  0.37260  0.03929  Biso   1.000  C
  C248     1.0000 0.84153  0.28060  0.99307  Biso   1.000  C
  H226     1.0000 0.77112  0.11392  0.90419  Biso   1.000  H
  H227     1.0000 0.51393  0.04901  0.92358  Biso   1.000  H
  H228     1.0000 0.55230  0.04713  0.99249  Biso   1.000  H
  H229     1.0000 0.56789  0.98211  0.95486  Biso   1.000  H
  Se16     1.0000 0.88705  0.40376  0.88049  Biso   1.000  Se
  O32      1.0000 0.97600  0.28109  0.96597  Biso   1.000  O
  C249     1.0000 0.09712  0.36792  0.95169  Biso   1.000  C
  H230     1.0000 0.93620  0.06131  0.97888  Biso   1.000  H
  H231     1.0000 0.96052  0.99119  0.95059  Biso   1.000  H
  H232     1.0000 0.02911  0.05400  0.96879  Biso   1.000  H
  H233     1.0000 0.98265  0.03649  0.83859  Biso   1.000  H
  H234     1.0000 0.02495  0.00451  0.90177  Biso   1.000  H
  H235     1.0000 0.04810  0.08302  0.88758  Biso   1.000  H
  C250     1.0000 0.52318  0.36260  0.05480  Biso   1.000  C
  C251     1.0000 0.65288  0.42268  0.07299  Biso   1.000  C
  C252     1.0000 0.87227  0.34481  0.03219  Biso   1.000  C
  C253     1.0000 0.10751  0.42939  0.98258  Biso   1.000  C
  C254     1.0000 0.16999  0.32998  0.95147  Biso   1.000  C
  H236     1.0000 0.48388  0.32671  0.03607  Biso   1.000  H
  C255     1.0000 0.50389  0.40371  0.09780  Biso   1.000  C
  C256     1.0000 0.62883  0.46061  0.11776  Biso   1.000  C
  H237     1.0000 0.70688  0.43192  0.06656  Biso   1.000  H
  H238     1.0000 0.84534  0.34428  0.06339  Biso   1.000  H
  H239     1.0000 0.93536  0.34320  0.04867  Biso   1.000  H
  H240     1.0000 0.85565  0.38802  0.00950  Biso   1.000  H
  H241     1.0000 0.05759  0.45481  0.98377  Biso   1.000  H
  C257     1.0000 0.18900  0.45578  0.01210  Biso   1.000  C
  C258     1.0000 0.25541  0.35599  0.98007  Biso   1.000  C
  H242     1.0000 0.16355  0.28598  0.93208  Biso   1.000  H
  H243     1.0000 0.45107  0.39522  0.10617  Biso   1.000  H
  C259     1.0000 0.55724  0.45502  0.12759  Biso   1.000  C
  H244     1.0000 0.67027  0.49189  0.14138  Biso   1.000  H
  H245     1.0000 0.19409  0.49747  0.03440  Biso   1.000  H
  C260     1.0000 0.26216  0.42128  0.00888  Biso   1.000  C
  H246     1.0000 0.30550  0.33031  0.97967  Biso   1.000  H
  H247     1.0000 0.54144  0.48479  0.15420  Biso   1.000  H
  H248     1.0000 0.31749  0.44148  0.02620  Biso   1.000  H
