data_image0
_cell_length_a       14.836
_cell_length_b       14.836
_cell_length_c       26.72
_cell_angle_alpha    90
_cell_angle_beta     90
_cell_angle_gamma    90

_symmetry_space_group_name_H-M    "P 1"
_symmetry_int_tables_number       1

loop_
  _symmetry_equiv_pos_as_xyz
  'x, y, z'

loop_
  _atom_site_label
  _atom_site_occupancy
  _atom_site_fract_x
  _atom_site_fract_y
  _atom_site_fract_z
  _atom_site_thermal_displace_type
  _atom_site_B_iso_or_equiv
  _atom_site_type_symbol
  C1       1.0000 0.53997  0.62679  0.49809  Biso   1.000  C
  C2       1.0000 0.61789  0.57623  0.52040  Biso   1.000  C
  C3       1.0000 0.53377  0.72048  0.52081  Biso   1.000  C
  H1       1.0000 0.47580  0.59120  0.50352  Biso   1.000  H
  H2       1.0000 0.54887  0.63319  0.45711  Biso   1.000  H
  C4       1.0000 0.70228  0.57010  0.49790  Biso   1.000  C
  C5       1.0000 0.61061  0.53700  0.56789  Biso   1.000  C
  C6       1.0000 0.57010  0.79772  0.49790  Biso   1.000  C
  C7       1.0000 0.49650  0.73200  0.56819  Biso   1.000  C
  O1       1.0000 0.71482  0.60387  0.44862  Biso   1.000  O
  C8       1.0000 0.77952  0.53377  0.52081  Biso   1.000  C
  C9       1.0000 0.68448  0.49521  0.59180  Biso   1.000  C
  H3       1.0000 0.54489  0.53822  0.58881  Biso   1.000  H
  O2       1.0000 0.60387  0.78518  0.44862  Biso   1.000  O
  C10      1.0000 0.57623  0.88211  0.52040  Biso   1.000  C
  C11      1.0000 0.49521  0.81552  0.59180  Biso   1.000  C
  H4       1.0000 0.46771  0.67343  0.58859  Biso   1.000  H
  C12      1.0000 0.67943  0.55069  0.41239  Biso   1.000  C
  C13      1.0000 0.76800  0.49650  0.56819  Biso   1.000  C
  C14      1.0000 0.87321  0.53997  0.49809  Biso   1.000  C
  C15      1.0000 0.67161  0.44877  0.64270  Biso   1.000  C
  C16      1.0000 0.55069  0.82057  0.41239  Biso   1.000  C
  C17      1.0000 0.53700  0.88939  0.56789  Biso   1.000  C
  C18      1.0000 0.62679  0.96003  0.49809  Biso   1.000  C
  C19      1.0000 0.44877  0.82839  0.64270  Biso   1.000  C
  O3       1.0000 0.70100  0.58803  0.36890  Biso   1.000  O
  O4       1.0000 0.63568  0.48497  0.41931  Biso   1.000  O
  H5       1.0000 0.82657  0.46771  0.58859  Biso   1.000  H
  C20      1.0000 0.92377  0.61789  0.52040  Biso   1.000  C
  H6       1.0000 0.90880  0.47580  0.50352  Biso   1.000  H
  H7       1.0000 0.86681  0.54887  0.45711  Biso   1.000  H
  C21      1.0000 0.62921  0.51301  0.67949  Biso   1.000  C
  C22      1.0000 0.75667  0.41231  0.66471  Biso   1.000  C
  C23      1.0000 0.60791  0.36998  0.63679  Biso   1.000  C
  O5       1.0000 0.48497  0.86432  0.41931  Biso   1.000  O
  O6       1.0000 0.58803  0.79900  0.36890  Biso   1.000  O
  H8       1.0000 0.53822  0.95511  0.58881  Biso   1.000  H
  C24      1.0000 0.72048  0.96623  0.52081  Biso   1.000  C
  H9       1.0000 0.63319  0.95113  0.45711  Biso   1.000  H
  H10      1.0000 0.59120  0.02420  0.50352  Biso   1.000  H
  C25      1.0000 0.51301  0.87079  0.67949  Biso   1.000  C
  C26      1.0000 0.41231  0.74333  0.66471  Biso   1.000  C
  C27      1.0000 0.36998  0.89209  0.63679  Biso   1.000  C
  C28      1.0000 0.66197  0.54031  0.32290  Biso   1.000  C
  C29      1.0000 0.92990  0.70228  0.49790  Biso   1.000  C
  C30      1.0000 0.96300  0.61061  0.56789  Biso   1.000  C
  H11      1.0000 0.56262  0.54118  0.66549  Biso   1.000  H
  H12      1.0000 0.67107  0.57583  0.68492  Biso   1.000  H
  H13      1.0000 0.61627  0.48672  0.71621  Biso   1.000  H
  H14      1.0000 0.80392  0.46717  0.67290  Biso   1.000  H
  H15      1.0000 0.78842  0.36560  0.63930  Biso   1.000  H
  H16      1.0000 0.74353  0.37672  0.70000  Biso   1.000  H
  H17      1.0000 0.63413  0.32623  0.60838  Biso   1.000  H
  H18      1.0000 0.54267  0.40092  0.62302  Biso   1.000  H
  H19      1.0000 0.59450  0.33419  0.67100  Biso   1.000  H
  C31      1.0000 0.54031  0.83803  0.32290  Biso   1.000  C
  C32      1.0000 0.79772  0.92990  0.49790  Biso   1.000  C
  C33      1.0000 0.73200  0.00350  0.56819  Biso   1.000  C
  H20      1.0000 0.54118  0.93738  0.66549  Biso   1.000  H
  H21      1.0000 0.57583  0.82893  0.68492  Biso   1.000  H
  H22      1.0000 0.48672  0.88373  0.71621  Biso   1.000  H
  H23      1.0000 0.46717  0.69608  0.67290  Biso   1.000  H
  H24      1.0000 0.36560  0.71158  0.63930  Biso   1.000  H
  H25      1.0000 0.37672  0.75647  0.70000  Biso   1.000  H
  H26      1.0000 0.32623  0.86587  0.60838  Biso   1.000  H
  H27      1.0000 0.40092  0.95733  0.62302  Biso   1.000  H
  H28      1.0000 0.33419  0.90550  0.67100  Biso   1.000  H
  C34      1.0000 0.66959  0.56963  0.28612  Biso   1.000  C
  H29      1.0000 0.59167  0.50350  0.33009  Biso   1.000  H
  H30      1.0000 0.70167  0.46387  0.31830  Biso   1.000  H
  O7       1.0000 0.89613  0.71482  0.44862  Biso   1.000  O
  C35      1.0000 0.96623  0.77952  0.52081  Biso   1.000  C
  H31      1.0000 0.96178  0.54489  0.58881  Biso   1.000  H
  C36      1.0000 0.00479  0.68448  0.59180  Biso   1.000  C
  C37      1.0000 0.56963  0.83041  0.28612  Biso   1.000  C
  H32      1.0000 0.50350  0.90833  0.33009  Biso   1.000  H
  H33      1.0000 0.46387  0.79833  0.31830  Biso   1.000  H
  C38      1.0000 0.88211  0.92377  0.52040  Biso   1.000  C
  O8       1.0000 0.78518  0.89613  0.44862  Biso   1.000  O
  C39      1.0000 0.81552  0.00479  0.59180  Biso   1.000  C
  H34      1.0000 0.67343  0.03229  0.58859  Biso   1.000  H
  C40      1.0000 0.94931  0.67943  0.41239  Biso   1.000  C
  C41      1.0000 0.96003  0.87321  0.49809  Biso   1.000  C
  C42      1.0000 0.00350  0.76800  0.56819  Biso   1.000  C
  C43      1.0000 0.05123  0.67161  0.64270  Biso   1.000  C
  C44      1.0000 0.88939  0.96300  0.56789  Biso   1.000  C
  C45      1.0000 0.82057  0.94931  0.41239  Biso   1.000  C
  C46      1.0000 0.82839  0.05123  0.64270  Biso   1.000  C
  O9       1.0000 0.91197  0.70100  0.36890  Biso   1.000  O
  O10      1.0000 0.01503  0.63568  0.41931  Biso   1.000  O
  H35      1.0000 0.95113  0.86681  0.45711  Biso   1.000  H
  H36      1.0000 0.02420  0.90880  0.50352  Biso   1.000  H
  H37      1.0000 0.03229  0.82657  0.58859  Biso   1.000  H
  C47      1.0000 0.98699  0.62921  0.67949  Biso   1.000  C
  C48      1.0000 0.08769  0.75667  0.66471  Biso   1.000  C
  C49      1.0000 0.13002  0.60791  0.63679  Biso   1.000  C
  H38      1.0000 0.95511  0.96178  0.58881  Biso   1.000  H
  O11      1.0000 0.79900  0.91197  0.36890  Biso   1.000  O
  O12      1.0000 0.86432  0.01503  0.41931  Biso   1.000  O
  C50      1.0000 0.87079  0.98699  0.67949  Biso   1.000  C
  C51      1.0000 0.74333  0.08769  0.66471  Biso   1.000  C
  C52      1.0000 0.89209  0.13002  0.63679  Biso   1.000  C
  C53      1.0000 0.95969  0.66197  0.32290  Biso   1.000  C
  H39      1.0000 0.95882  0.56262  0.66549  Biso   1.000  H
  H40      1.0000 0.92417  0.67107  0.68492  Biso   1.000  H
  H41      1.0000 0.01328  0.61627  0.71621  Biso   1.000  H
  H42      1.0000 0.03283  0.80392  0.67290  Biso   1.000  H
  H43      1.0000 0.13440  0.78842  0.63930  Biso   1.000  H
  H44      1.0000 0.12328  0.74353  0.70000  Biso   1.000  H
  H45      1.0000 0.17377  0.63413  0.60838  Biso   1.000  H
  H46      1.0000 0.09908  0.54267  0.62302  Biso   1.000  H
  H47      1.0000 0.16581  0.59450  0.67100  Biso   1.000  H
  C54      1.0000 0.83803  0.95969  0.32290  Biso   1.000  C
  H48      1.0000 0.93738  0.95882  0.66549  Biso   1.000  H
  H49      1.0000 0.82893  0.92417  0.68492  Biso   1.000  H
  H50      1.0000 0.88373  0.01328  0.71621  Biso   1.000  H
  H51      1.0000 0.69608  0.03283  0.67290  Biso   1.000  H
  H52      1.0000 0.71158  0.13440  0.63930  Biso   1.000  H
  H53      1.0000 0.75647  0.12328  0.70000  Biso   1.000  H
  H54      1.0000 0.86587  0.17377  0.60838  Biso   1.000  H
  H55      1.0000 0.95733  0.09908  0.62302  Biso   1.000  H
  H56      1.0000 0.90550  0.16581  0.67100  Biso   1.000  H
  C55      1.0000 0.93037  0.66959  0.28612  Biso   1.000  C
  H57      1.0000 0.99650  0.59167  0.33009  Biso   1.000  H
  H58      1.0000 0.03613  0.70167  0.31830  Biso   1.000  H
  C56      1.0000 0.83041  0.93037  0.28612  Biso   1.000  C
  H59      1.0000 0.90833  0.99650  0.33009  Biso   1.000  H
  H60      1.0000 0.79833  0.03613  0.31830  Biso   1.000  H
  C57      1.0000 0.46003  0.37321  0.50191  Biso   1.000  C
  C58      1.0000 0.46623  0.27952  0.47919  Biso   1.000  C
  C59      1.0000 0.38211  0.42377  0.47960  Biso   1.000  C
  H61      1.0000 0.52420  0.40880  0.49648  Biso   1.000  H
  H62      1.0000 0.45113  0.36681  0.54289  Biso   1.000  H
  C60      1.0000 0.50350  0.26800  0.43181  Biso   1.000  C
  C61      1.0000 0.42990  0.20228  0.50210  Biso   1.000  C
  C62      1.0000 0.29772  0.42990  0.50210  Biso   1.000  C
  C63      1.0000 0.38939  0.46300  0.43211  Biso   1.000  C
  C64      1.0000 0.50479  0.18448  0.40820  Biso   1.000  C
  H63      1.0000 0.53229  0.32657  0.41141  Biso   1.000  H
  C65      1.0000 0.42377  0.11789  0.47960  Biso   1.000  C
  O13      1.0000 0.39613  0.21482  0.55138  Biso   1.000  O
  O14      1.0000 0.28518  0.39613  0.55138  Biso   1.000  O
  C66      1.0000 0.22048  0.46623  0.47919  Biso   1.000  C
  C67      1.0000 0.31552  0.50479  0.40820  Biso   1.000  C
  H64      1.0000 0.45511  0.46178  0.41119  Biso   1.000  H
  C68      1.0000 0.55123  0.17161  0.35730  Biso   1.000  C
  C69      1.0000 0.46300  0.11061  0.43211  Biso   1.000  C
  C70      1.0000 0.37321  0.03997  0.50191  Biso   1.000  C
  C71      1.0000 0.44931  0.17943  0.58761  Biso   1.000  C
  C72      1.0000 0.32057  0.44931  0.58761  Biso   1.000  C
  C73      1.0000 0.23200  0.50350  0.43181  Biso   1.000  C
  C74      1.0000 0.12679  0.46003  0.50191  Biso   1.000  C
  C75      1.0000 0.32839  0.55123  0.35730  Biso   1.000  C
  C76      1.0000 0.48699  0.12921  0.32051  Biso   1.000  C
  C77      1.0000 0.58769  0.25667  0.33529  Biso   1.000  C
  C78      1.0000 0.63002  0.10791  0.36321  Biso   1.000  C
  H65      1.0000 0.46178  0.04489  0.41119  Biso   1.000  H
  C79      1.0000 0.27952  0.03377  0.47919  Biso   1.000  C
  H66      1.0000 0.36681  0.04887  0.54289  Biso   1.000  H
  H67      1.0000 0.40880  0.97580  0.49648  Biso   1.000  H
  O15      1.0000 0.51503  0.13568  0.58069  Biso   1.000  O
  O16      1.0000 0.41197  0.20100  0.63110  Biso   1.000  O
  O17      1.0000 0.36432  0.51503  0.58069  Biso   1.000  O
  O18      1.0000 0.29900  0.41197  0.63110  Biso   1.000  O
  H68      1.0000 0.17343  0.53229  0.41141  Biso   1.000  H
  C80      1.0000 0.07623  0.38211  0.47960  Biso   1.000  C
  H69      1.0000 0.09120  0.52420  0.49648  Biso   1.000  H
  H70      1.0000 0.13319  0.45113  0.54289  Biso   1.000  H
  C81      1.0000 0.37079  0.48699  0.32051  Biso   1.000  C
  C82      1.0000 0.24333  0.58769  0.33529  Biso   1.000  C
  C83      1.0000 0.39209  0.63002  0.36321  Biso   1.000  C
  H71      1.0000 0.45882  0.06262  0.33451  Biso   1.000  H
  H72      1.0000 0.42417  0.17107  0.31508  Biso   1.000  H
  H73      1.0000 0.51328  0.11627  0.28379  Biso   1.000  H
  H74      1.0000 0.53283  0.30392  0.32710  Biso   1.000  H
  H75      1.0000 0.63440  0.28842  0.36070  Biso   1.000  H
  H76      1.0000 0.62328  0.24353  0.30000  Biso   1.000  H
  H77      1.0000 0.67377  0.13413  0.39162  Biso   1.000  H
  H78      1.0000 0.59908  0.04267  0.37698  Biso   1.000  H
  H79      1.0000 0.66581  0.09450  0.32900  Biso   1.000  H
  C84      1.0000 0.20228  0.07010  0.50210  Biso   1.000  C
  C85      1.0000 0.26800  0.99650  0.43181  Biso   1.000  C
  C86      1.0000 0.45969  0.16197  0.67710  Biso   1.000  C
  C87      1.0000 0.33803  0.45969  0.67710  Biso   1.000  C
  C88      1.0000 0.07010  0.29772  0.50210  Biso   1.000  C
  C89      1.0000 0.03700  0.38939  0.43211  Biso   1.000  C
  H80      1.0000 0.43738  0.45882  0.33451  Biso   1.000  H
  H81      1.0000 0.32893  0.42417  0.31508  Biso   1.000  H
  H82      1.0000 0.38373  0.51328  0.28379  Biso   1.000  H
  H83      1.0000 0.19608  0.53283  0.32710  Biso   1.000  H
  H84      1.0000 0.21158  0.63440  0.36070  Biso   1.000  H
  H85      1.0000 0.25647  0.62328  0.30000  Biso   1.000  H
  H86      1.0000 0.36587  0.67377  0.39162  Biso   1.000  H
  H87      1.0000 0.45733  0.59908  0.37698  Biso   1.000  H
  H88      1.0000 0.40550  0.66581  0.32900  Biso   1.000  H
  O19      1.0000 0.21482  0.10387  0.55138  Biso   1.000  O
  C90      1.0000 0.11789  0.07623  0.47960  Biso   1.000  C
  C91      1.0000 0.18448  0.99521  0.40820  Biso   1.000  C
  H89      1.0000 0.32657  0.96771  0.41141  Biso   1.000  H
  C92      1.0000 0.43037  0.16959  0.71388  Biso   1.000  C
  H90      1.0000 0.49650  0.09167  0.66991  Biso   1.000  H
  H91      1.0000 0.53613  0.20167  0.68170  Biso   1.000  H
  C93      1.0000 0.33041  0.43037  0.71388  Biso   1.000  C
  H92      1.0000 0.40833  0.49650  0.66991  Biso   1.000  H
  H93      1.0000 0.29833  0.53613  0.68170  Biso   1.000  H
  C94      1.0000 0.03377  0.22048  0.47919  Biso   1.000  C
  O20      1.0000 0.10387  0.28518  0.55138  Biso   1.000  O
  C95      1.0000 0.99521  0.31552  0.40820  Biso   1.000  C
  H94      1.0000 0.03822  0.45511  0.41119  Biso   1.000  H
  C96      1.0000 0.17943  0.05069  0.58761  Biso   1.000  C
  C97      1.0000 0.11061  0.03700  0.43211  Biso   1.000  C
  C98      1.0000 0.03997  0.12679  0.50191  Biso   1.000  C
  C99      1.0000 0.17161  0.94877  0.35730  Biso   1.000  C
  C100     1.0000 0.99650  0.23200  0.43181  Biso   1.000  C
  C101     1.0000 0.05069  0.32057  0.58761  Biso   1.000  C
  C102     1.0000 0.94877  0.32839  0.35730  Biso   1.000  C
  O21      1.0000 0.20100  0.08803  0.63110  Biso   1.000  O
  O22      1.0000 0.13568  0.98497  0.58069  Biso   1.000  O
  H95      1.0000 0.04489  0.03822  0.41119  Biso   1.000  H
  H96      1.0000 0.04887  0.13319  0.54289  Biso   1.000  H
  H97      1.0000 0.97580  0.09120  0.49648  Biso   1.000  H
  C103     1.0000 0.12921  0.01301  0.32051  Biso   1.000  C
  C104     1.0000 0.25667  0.91231  0.33529  Biso   1.000  C
  C105     1.0000 0.10791  0.86998  0.36321  Biso   1.000  C
  H98      1.0000 0.96771  0.17343  0.41141  Biso   1.000  H
  O23      1.0000 0.08803  0.29900  0.63110  Biso   1.000  O
  O24      1.0000 0.98497  0.36432  0.58069  Biso   1.000  O
  C106     1.0000 0.01301  0.37079  0.32051  Biso   1.000  C
  C107     1.0000 0.91231  0.24333  0.33529  Biso   1.000  C
  C108     1.0000 0.86998  0.39209  0.36321  Biso   1.000  C
  C109     1.0000 0.16197  0.04031  0.67710  Biso   1.000  C
  H99      1.0000 0.06262  0.04118  0.33451  Biso   1.000  H
  H100     1.0000 0.17107  0.07583  0.31508  Biso   1.000  H
  H101     1.0000 0.11627  0.98672  0.28379  Biso   1.000  H
  H102     1.0000 0.30392  0.96717  0.32710  Biso   1.000  H
  H103     1.0000 0.28842  0.86560  0.36070  Biso   1.000  H
  H104     1.0000 0.24353  0.87672  0.30000  Biso   1.000  H
  H105     1.0000 0.13413  0.82623  0.39162  Biso   1.000  H
  H106     1.0000 0.04267  0.90092  0.37698  Biso   1.000  H
  H107     1.0000 0.09450  0.83419  0.32900  Biso   1.000  H
  C110     1.0000 0.04031  0.33803  0.67710  Biso   1.000  C
  H108     1.0000 0.04118  0.43738  0.33451  Biso   1.000  H
  H109     1.0000 0.07583  0.32893  0.31508  Biso   1.000  H
  H110     1.0000 0.98672  0.38373  0.28379  Biso   1.000  H
  H111     1.0000 0.96717  0.19608  0.32710  Biso   1.000  H
  H112     1.0000 0.86560  0.21158  0.36070  Biso   1.000  H
  H113     1.0000 0.87672  0.25647  0.30000  Biso   1.000  H
  H114     1.0000 0.82623  0.36587  0.39162  Biso   1.000  H
  H115     1.0000 0.90092  0.45733  0.37698  Biso   1.000  H
  H116     1.0000 0.83419  0.40550  0.32900  Biso   1.000  H
  C111     1.0000 0.16959  0.06963  0.71388  Biso   1.000  C
  H117     1.0000 0.09167  0.00350  0.66991  Biso   1.000  H
  H118     1.0000 0.20167  0.96387  0.68170  Biso   1.000  H
  C112     1.0000 0.06963  0.33041  0.71388  Biso   1.000  C
  H119     1.0000 0.00350  0.40833  0.66991  Biso   1.000  H
  H120     1.0000 0.96387  0.29833  0.68170  Biso   1.000  H
  C113     1.0000 0.51301  0.62921  0.17949  Biso   1.000  C
  C114     1.0000 0.44877  0.67161  0.14270  Biso   1.000  C
  H121     1.0000 0.54118  0.56262  0.16549  Biso   1.000  H
  H122     1.0000 0.57583  0.67107  0.18492  Biso   1.000  H
  H123     1.0000 0.48672  0.61627  0.21621  Biso   1.000  H
  C115     1.0000 0.36998  0.60791  0.13679  Biso   1.000  C
  C116     1.0000 0.49521  0.68448  0.09180  Biso   1.000  C
  C117     1.0000 0.41231  0.75667  0.16471  Biso   1.000  C
  H124     1.0000 0.32623  0.63413  0.10838  Biso   1.000  H
  H125     1.0000 0.40092  0.54267  0.12302  Biso   1.000  H
  H126     1.0000 0.33419  0.59450  0.17100  Biso   1.000  H
  C118     1.0000 0.53700  0.61061  0.06789  Biso   1.000  C
  C119     1.0000 0.49650  0.76800  0.06819  Biso   1.000  C
  H127     1.0000 0.46717  0.80392  0.17290  Biso   1.000  H
  H128     1.0000 0.36560  0.78842  0.13930  Biso   1.000  H
  H129     1.0000 0.37672  0.74353  0.20000  Biso   1.000  H
  C120     1.0000 0.57623  0.61789  0.02040  Biso   1.000  C
  H130     1.0000 0.53822  0.54489  0.08881  Biso   1.000  H
  C121     1.0000 0.53377  0.77952  0.02081  Biso   1.000  C
  H131     1.0000 0.46771  0.82657  0.08859  Biso   1.000  H
  C122     1.0000 0.57010  0.70228  0.99790  Biso   1.000  C
  C123     1.0000 0.62679  0.53997  0.99809  Biso   1.000  C
  C124     1.0000 0.53997  0.87321  0.99809  Biso   1.000  C
  O25      1.0000 0.60387  0.71482  0.94862  Biso   1.000  O
  C125     1.0000 0.72048  0.53377  0.02081  Biso   1.000  C
  H132     1.0000 0.59120  0.47580  0.00352  Biso   1.000  H
  H133     1.0000 0.63319  0.54887  0.95711  Biso   1.000  H
  C126     1.0000 0.61789  0.92377  0.02040  Biso   1.000  C
  H134     1.0000 0.47580  0.90880  0.00352  Biso   1.000  H
  H135     1.0000 0.54887  0.86681  0.95711  Biso   1.000  H
  C127     1.0000 0.55069  0.67943  0.91239  Biso   1.000  C
  C128     1.0000 0.73200  0.49650  0.06819  Biso   1.000  C
  C129     1.0000 0.79772  0.57010  0.99790  Biso   1.000  C
  C130     1.0000 0.61061  0.96300  0.06789  Biso   1.000  C
  C131     1.0000 0.70228  0.92990  0.99790  Biso   1.000  C
  O26      1.0000 0.48497  0.63568  0.91931  Biso   1.000  O
  O27      1.0000 0.58803  0.70100  0.86890  Biso   1.000  O
  C132     1.0000 0.81552  0.49521  0.09180  Biso   1.000  C
  H136     1.0000 0.67343  0.46771  0.08859  Biso   1.000  H
  C133     1.0000 0.88211  0.57623  0.02040  Biso   1.000  C
  O28      1.0000 0.78518  0.60387  0.94862  Biso   1.000  O
  H137     1.0000 0.54489  0.96178  0.08881  Biso   1.000  H
  C134     1.0000 0.68448  0.00479  0.09180  Biso   1.000  C
  C135     1.0000 0.77952  0.96623  0.02081  Biso   1.000  C
  O29      1.0000 0.71482  0.89613  0.94862  Biso   1.000  O
  C136     1.0000 0.54031  0.66197  0.82290  Biso   1.000  C
  C137     1.0000 0.88939  0.53700  0.06789  Biso   1.000  C
  C138     1.0000 0.82839  0.44877  0.14270  Biso   1.000  C
  C139     1.0000 0.96003  0.62679  0.99809  Biso   1.000  C
  C140     1.0000 0.82057  0.55069  0.91239  Biso   1.000  C
  C141     1.0000 0.76800  0.00350  0.06819  Biso   1.000  C
  C142     1.0000 0.67161  0.05123  0.14270  Biso   1.000  C
  C143     1.0000 0.87321  0.96003  0.99809  Biso   1.000  C
  C144     1.0000 0.67943  0.94931  0.91239  Biso   1.000  C
  C145     1.0000 0.56963  0.66959  0.78612  Biso   1.000  C
  H138     1.0000 0.50350  0.59167  0.83009  Biso   1.000  H
  H139     1.0000 0.46387  0.70167  0.81830  Biso   1.000  H
  H140     1.0000 0.95511  0.53822  0.08881  Biso   1.000  H
  C146     1.0000 0.87079  0.51301  0.17949  Biso   1.000  C
  C147     1.0000 0.74333  0.41231  0.16471  Biso   1.000  C
  C148     1.0000 0.89209  0.36998  0.13679  Biso   1.000  C
  C149     1.0000 0.96623  0.72048  0.02081  Biso   1.000  C
  H141     1.0000 0.95113  0.63319  0.95711  Biso   1.000  H
  H142     1.0000 0.02420  0.59120  0.00352  Biso   1.000  H
  O30      1.0000 0.86432  0.48497  0.91931  Biso   1.000  O
  O31      1.0000 0.79900  0.58803  0.86890  Biso   1.000  O
  H143     1.0000 0.82657  0.03229  0.08859  Biso   1.000  H
  C150     1.0000 0.62921  0.98699  0.17949  Biso   1.000  C
  C151     1.0000 0.75667  0.08769  0.16471  Biso   1.000  C
  C152     1.0000 0.60791  0.13002  0.13679  Biso   1.000  C
  C153     1.0000 0.92377  0.88211  0.02040  Biso   1.000  C
  H144     1.0000 0.86681  0.95113  0.95711  Biso   1.000  H
  H145     1.0000 0.90880  0.02420  0.00352  Biso   1.000  H
  O32      1.0000 0.70100  0.91197  0.86890  Biso   1.000  O
  O33      1.0000 0.63568  0.01503  0.91931  Biso   1.000  O
  H146     1.0000 0.93738  0.54118  0.16549  Biso   1.000  H
  H147     1.0000 0.82893  0.57583  0.18492  Biso   1.000  H
  H148     1.0000 0.88373  0.48672  0.21621  Biso   1.000  H
  H149     1.0000 0.69608  0.46717  0.17290  Biso   1.000  H
  H150     1.0000 0.71158  0.36560  0.13930  Biso   1.000  H
  H151     1.0000 0.75647  0.37672  0.20000  Biso   1.000  H
  H152     1.0000 0.86587  0.32623  0.10838  Biso   1.000  H
  H153     1.0000 0.95733  0.40092  0.12302  Biso   1.000  H
  H154     1.0000 0.90550  0.33419  0.17100  Biso   1.000  H
  C154     1.0000 0.92990  0.79772  0.99790  Biso   1.000  C
  C155     1.0000 0.00350  0.73200  0.06819  Biso   1.000  C
  C156     1.0000 0.83803  0.54031  0.82290  Biso   1.000  C
  H155     1.0000 0.56262  0.95882  0.16549  Biso   1.000  H
  H156     1.0000 0.67107  0.92417  0.18492  Biso   1.000  H
  H157     1.0000 0.61627  0.01328  0.21621  Biso   1.000  H
  H158     1.0000 0.80392  0.03283  0.17290  Biso   1.000  H
  H159     1.0000 0.78842  0.13440  0.13930  Biso   1.000  H
  H160     1.0000 0.74353  0.12328  0.20000  Biso   1.000  H
  H161     1.0000 0.63413  0.17377  0.10838  Biso   1.000  H
  H162     1.0000 0.54267  0.09908  0.12302  Biso   1.000  H
  H163     1.0000 0.59450  0.16581  0.17100  Biso   1.000  H
  C157     1.0000 0.96300  0.88939  0.06789  Biso   1.000  C
  C158     1.0000 0.66197  0.95969  0.82290  Biso   1.000  C
  O34      1.0000 0.89613  0.78518  0.94862  Biso   1.000  O
  C159     1.0000 0.00479  0.81552  0.09180  Biso   1.000  C
  H164     1.0000 0.03229  0.67343  0.08859  Biso   1.000  H
  C160     1.0000 0.83041  0.56963  0.78612  Biso   1.000  C
  H165     1.0000 0.90833  0.50350  0.83009  Biso   1.000  H
  H166     1.0000 0.79833  0.46387  0.81830  Biso   1.000  H
  H167     1.0000 0.96178  0.95511  0.08881  Biso   1.000  H
  C161     1.0000 0.66959  0.93037  0.78612  Biso   1.000  C
  H168     1.0000 0.59167  0.99650  0.83009  Biso   1.000  H
  H169     1.0000 0.70167  0.03613  0.81830  Biso   1.000  H
  C162     1.0000 0.94931  0.82057  0.91239  Biso   1.000  C
  C163     1.0000 0.05123  0.82839  0.14270  Biso   1.000  C
  O35      1.0000 0.91197  0.79900  0.86890  Biso   1.000  O
  O36      1.0000 0.01503  0.86432  0.91931  Biso   1.000  O
  C164     1.0000 0.98699  0.87079  0.17949  Biso   1.000  C
  C165     1.0000 0.08769  0.74333  0.16471  Biso   1.000  C
  C166     1.0000 0.13002  0.89209  0.13679  Biso   1.000  C
  C167     1.0000 0.95969  0.83803  0.82290  Biso   1.000  C
  H170     1.0000 0.95882  0.93738  0.16549  Biso   1.000  H
  H171     1.0000 0.92417  0.82893  0.18492  Biso   1.000  H
  H172     1.0000 0.01328  0.88373  0.21621  Biso   1.000  H
  H173     1.0000 0.03283  0.69608  0.17290  Biso   1.000  H
  H174     1.0000 0.13440  0.71158  0.13930  Biso   1.000  H
  H175     1.0000 0.12328  0.75647  0.20000  Biso   1.000  H
  H176     1.0000 0.17377  0.86587  0.10838  Biso   1.000  H
  H177     1.0000 0.09908  0.95733  0.12302  Biso   1.000  H
  H178     1.0000 0.16581  0.90550  0.17100  Biso   1.000  H
  C168     1.0000 0.93037  0.83041  0.78612  Biso   1.000  C
  H179     1.0000 0.99650  0.90833  0.83009  Biso   1.000  H
  H180     1.0000 0.03613  0.79833  0.81830  Biso   1.000  H
  C169     1.0000 0.48699  0.37079  0.82051  Biso   1.000  C
  C170     1.0000 0.55123  0.32839  0.85730  Biso   1.000  C
  H181     1.0000 0.45882  0.43738  0.83451  Biso   1.000  H
  H182     1.0000 0.42417  0.32893  0.81508  Biso   1.000  H
  H183     1.0000 0.51328  0.38373  0.78379  Biso   1.000  H
  C171     1.0000 0.50479  0.31552  0.90820  Biso   1.000  C
  C172     1.0000 0.58769  0.24333  0.83529  Biso   1.000  C
  C173     1.0000 0.63002  0.39209  0.86321  Biso   1.000  C
  C174     1.0000 0.46300  0.38939  0.93211  Biso   1.000  C
  C175     1.0000 0.50350  0.23200  0.93181  Biso   1.000  C
  H184     1.0000 0.53283  0.19608  0.82710  Biso   1.000  H
  H185     1.0000 0.63440  0.21158  0.86070  Biso   1.000  H
  H186     1.0000 0.62328  0.25647  0.80000  Biso   1.000  H
  H187     1.0000 0.67377  0.36587  0.89162  Biso   1.000  H
  H188     1.0000 0.59908  0.45733  0.87698  Biso   1.000  H
  H189     1.0000 0.66581  0.40550  0.82900  Biso   1.000  H
  C176     1.0000 0.42377  0.38211  0.97960  Biso   1.000  C
  H190     1.0000 0.46178  0.45511  0.91119  Biso   1.000  H
  C177     1.0000 0.46623  0.22048  0.97919  Biso   1.000  C
  H191     1.0000 0.53229  0.17343  0.91141  Biso   1.000  H
  C178     1.0000 0.42990  0.29772  0.00210  Biso   1.000  C
  C179     1.0000 0.37321  0.46003  0.00191  Biso   1.000  C
  C180     1.0000 0.46003  0.12679  0.00191  Biso   1.000  C
  O37      1.0000 0.39613  0.28518  0.05138  Biso   1.000  O
  C181     1.0000 0.27952  0.46623  0.97919  Biso   1.000  C
  H192     1.0000 0.40880  0.52420  0.99648  Biso   1.000  H
  H193     1.0000 0.36681  0.45113  0.04289  Biso   1.000  H
  C182     1.0000 0.38211  0.07623  0.97960  Biso   1.000  C
  H194     1.0000 0.52420  0.09120  0.99648  Biso   1.000  H
  H195     1.0000 0.45113  0.13319  0.04289  Biso   1.000  H
  C183     1.0000 0.44931  0.32057  0.08761  Biso   1.000  C
  C184     1.0000 0.26800  0.50350  0.93181  Biso   1.000  C
  C185     1.0000 0.20228  0.42990  0.00210  Biso   1.000  C
  C186     1.0000 0.38939  0.03700  0.93211  Biso   1.000  C
  C187     1.0000 0.29772  0.07010  0.00210  Biso   1.000  C
  O38      1.0000 0.51503  0.36432  0.08069  Biso   1.000  O
  O39      1.0000 0.41197  0.29900  0.13110  Biso   1.000  O
  C188     1.0000 0.18448  0.50479  0.90820  Biso   1.000  C
  H196     1.0000 0.32657  0.53229  0.91141  Biso   1.000  H
  C189     1.0000 0.11789  0.42377  0.97960  Biso   1.000  C
  O40      1.0000 0.21482  0.39613  0.05138  Biso   1.000  O
  H197     1.0000 0.45511  0.03822  0.91119  Biso   1.000  H
  C190     1.0000 0.31552  0.99521  0.90820  Biso   1.000  C
  C191     1.0000 0.22048  0.03377  0.97919  Biso   1.000  C
  O41      1.0000 0.28518  0.10387  0.05138  Biso   1.000  O
  C192     1.0000 0.45969  0.33803  0.17710  Biso   1.000  C
  C193     1.0000 0.11061  0.46300  0.93211  Biso   1.000  C
  C194     1.0000 0.17161  0.55123  0.85730  Biso   1.000  C
  C195     1.0000 0.03997  0.37321  0.00191  Biso   1.000  C
  C196     1.0000 0.17943  0.44931  0.08761  Biso   1.000  C
  C197     1.0000 0.23200  0.99650  0.93181  Biso   1.000  C
  C198     1.0000 0.32839  0.94877  0.85730  Biso   1.000  C
  C199     1.0000 0.12679  0.03997  0.00191  Biso   1.000  C
  C200     1.0000 0.32057  0.05069  0.08761  Biso   1.000  C
  C201     1.0000 0.43037  0.33041  0.21388  Biso   1.000  C
  H198     1.0000 0.49650  0.40833  0.16991  Biso   1.000  H
  H199     1.0000 0.53613  0.29833  0.18170  Biso   1.000  H
  H200     1.0000 0.04489  0.46178  0.91119  Biso   1.000  H
  C202     1.0000 0.12921  0.48699  0.82051  Biso   1.000  C
  C203     1.0000 0.25667  0.58769  0.83529  Biso   1.000  C
  C204     1.0000 0.10791  0.63002  0.86321  Biso   1.000  C
  C205     1.0000 0.03377  0.27952  0.97919  Biso   1.000  C
  H201     1.0000 0.97580  0.40880  0.99648  Biso   1.000  H
  H202     1.0000 0.04887  0.36681  0.04289  Biso   1.000  H
  O42      1.0000 0.13568  0.51503  0.08069  Biso   1.000  O
  O43      1.0000 0.20100  0.41197  0.13110  Biso   1.000  O
  H203     1.0000 0.17343  0.96771  0.91141  Biso   1.000  H
  C206     1.0000 0.37079  0.01301  0.82051  Biso   1.000  C
  C207     1.0000 0.24333  0.91231  0.83529  Biso   1.000  C
  C208     1.0000 0.39209  0.86998  0.86321  Biso   1.000  C
  C209     1.0000 0.07623  0.11789  0.97960  Biso   1.000  C
  H204     1.0000 0.09120  0.97580  0.99648  Biso   1.000  H
  H205     1.0000 0.13319  0.04887  0.04289  Biso   1.000  H
  O44      1.0000 0.36432  0.98497  0.08069  Biso   1.000  O
  O45      1.0000 0.29900  0.08803  0.13110  Biso   1.000  O
  H206     1.0000 0.06262  0.45882  0.83451  Biso   1.000  H
  H207     1.0000 0.17107  0.42417  0.81508  Biso   1.000  H
  H208     1.0000 0.11627  0.51328  0.78379  Biso   1.000  H
  H209     1.0000 0.30392  0.53283  0.82710  Biso   1.000  H
  H210     1.0000 0.28842  0.63440  0.86070  Biso   1.000  H
  H211     1.0000 0.24353  0.62328  0.80000  Biso   1.000  H
  H212     1.0000 0.13413  0.67377  0.89162  Biso   1.000  H
  H213     1.0000 0.04267  0.59908  0.87698  Biso   1.000  H
  H214     1.0000 0.09450  0.66581  0.82900  Biso   1.000  H
  C210     1.0000 0.99650  0.26800  0.93181  Biso   1.000  C
  C211     1.0000 0.07010  0.20228  0.00210  Biso   1.000  C
  C212     1.0000 0.16197  0.45969  0.17710  Biso   1.000  C
  H215     1.0000 0.43738  0.04118  0.83451  Biso   1.000  H
  H216     1.0000 0.32893  0.07583  0.81508  Biso   1.000  H
  H217     1.0000 0.38373  0.98672  0.78379  Biso   1.000  H
  H218     1.0000 0.19608  0.96717  0.82710  Biso   1.000  H
  H219     1.0000 0.21158  0.86560  0.86070  Biso   1.000  H
  H220     1.0000 0.25647  0.87672  0.80000  Biso   1.000  H
  H221     1.0000 0.36587  0.82623  0.89162  Biso   1.000  H
  H222     1.0000 0.45733  0.90092  0.87698  Biso   1.000  H
  H223     1.0000 0.40550  0.83419  0.82900  Biso   1.000  H
  C213     1.0000 0.03700  0.11061  0.93211  Biso   1.000  C
  C214     1.0000 0.33803  0.04031  0.17710  Biso   1.000  C
  C215     1.0000 0.99521  0.18448  0.90820  Biso   1.000  C
  H224     1.0000 0.96771  0.32657  0.91141  Biso   1.000  H
  O46      1.0000 0.10387  0.21482  0.05138  Biso   1.000  O
  C216     1.0000 0.16959  0.43037  0.21388  Biso   1.000  C
  H225     1.0000 0.09167  0.49650  0.16991  Biso   1.000  H
  H226     1.0000 0.20167  0.53613  0.18170  Biso   1.000  H
  H227     1.0000 0.03822  0.04489  0.91119  Biso   1.000  H
  H228     1.0000 0.29833  0.96387  0.18170  Biso   1.000  H
  C217     1.0000 0.33041  0.06963  0.21388  Biso   1.000  C
  H229     1.0000 0.40833  0.00350  0.16991  Biso   1.000  H
  C218     1.0000 0.94877  0.17161  0.85730  Biso   1.000  C
  C219     1.0000 0.05069  0.17943  0.08761  Biso   1.000  C
  C220     1.0000 0.01301  0.12921  0.82051  Biso   1.000  C
  C221     1.0000 0.91231  0.25667  0.83529  Biso   1.000  C
  C222     1.0000 0.86998  0.10791  0.86321  Biso   1.000  C
  O47      1.0000 0.98497  0.13568  0.08069  Biso   1.000  O
  O48      1.0000 0.08803  0.20100  0.13110  Biso   1.000  O
  H230     1.0000 0.04118  0.06262  0.83451  Biso   1.000  H
  H231     1.0000 0.07583  0.17107  0.81508  Biso   1.000  H
  H232     1.0000 0.98672  0.11627  0.78379  Biso   1.000  H
  H233     1.0000 0.96717  0.30392  0.82710  Biso   1.000  H
  H234     1.0000 0.86560  0.28842  0.86070  Biso   1.000  H
  H235     1.0000 0.87672  0.24353  0.80000  Biso   1.000  H
  H236     1.0000 0.82623  0.13413  0.89162  Biso   1.000  H
  H237     1.0000 0.90092  0.04267  0.87698  Biso   1.000  H
  H238     1.0000 0.83419  0.09450  0.82900  Biso   1.000  H
  C223     1.0000 0.04031  0.16197  0.17710  Biso   1.000  C
  H239     1.0000 0.96387  0.20167  0.18170  Biso   1.000  H
  C224     1.0000 0.06963  0.16959  0.21388  Biso   1.000  C
  H240     1.0000 0.00350  0.09167  0.16991  Biso   1.000  H
