data_image0
_cell_length_a       12.697
_cell_length_b       15.768
_cell_length_c       16.092
_cell_angle_alpha    74.97
_cell_angle_beta     69.58
_cell_angle_gamma    82.51

_symmetry_space_group_name_H-M    "P 1"
_symmetry_int_tables_number       1

loop_
  _symmetry_equiv_pos_as_xyz
  'x, y, z'

loop_
  _atom_site_label
  _atom_site_occupancy
  _atom_site_fract_x
  _atom_site_fract_y
  _atom_site_fract_z
  _atom_site_thermal_displace_type
  _atom_site_B_iso_or_equiv
  _atom_site_type_symbol
  O1       1.0000 0.53178  0.39555  0.50886  Biso   1.000  O
  H1       1.0000 0.52087  0.38948  0.46218  Biso   1.000  H
  C1       1.0000 0.61586  0.33570  0.52692  Biso   1.000  C
  C2       1.0000 0.72294  0.34231  0.46546  Biso   1.000  C
  C3       1.0000 0.58968  0.27148  0.60875  Biso   1.000  C
  O2       1.0000 0.75071  0.40438  0.38437  Biso   1.000  O
  C4       1.0000 0.80846  0.28471  0.48317  Biso   1.000  C
  C5       1.0000 0.47241  0.26406  0.67560  Biso   1.000  C
  C6       1.0000 0.67946  0.21571  0.62456  Biso   1.000  C
  H2       1.0000 0.69660  0.44116  0.38410  Biso   1.000  H
  O3       1.0000 0.91661  0.29150  0.42117  Biso   1.000  O
  C7       1.0000 0.78958  0.22077  0.56371  Biso   1.000  C
  C8       1.0000 0.45751  0.31149  0.75034  Biso   1.000  C
  H3       1.0000 0.42141  0.29600  0.64119  Biso   1.000  H
  C9       1.0000 0.43664  0.16912  0.71110  Biso   1.000  C
  H4       1.0000 0.66470  0.17176  0.67989  Biso   1.000  H
  H5       1.0000 0.92209  0.34036  0.38376  Biso   1.000  H
  C10      1.0000 0.88454  0.15716  0.58490  Biso   1.000  C
  C11      1.0000 0.42871  0.40087  0.73876  Biso   1.000  C
  C12      1.0000 0.47354  0.26738  0.83265  Biso   1.000  C
  H6       1.0000 0.45219  0.14250  0.65842  Biso   1.000  H
  H7       1.0000 0.48379  0.13599  0.74769  Biso   1.000  H
  C13      1.0000 0.31501  0.15798  0.76847  Biso   1.000  C
  C14      1.0000 0.93165  0.19060  0.64459  Biso   1.000  C
  H8       1.0000 0.94653  0.15869  0.52555  Biso   1.000  H
  C15      1.0000 0.84741  0.06261  0.62211  Biso   1.000  C
  O4       1.0000 0.40830  0.45232  0.66169  Biso   1.000  O
  C16      1.0000 0.41838  0.44455  0.80560  Biso   1.000  C
  C17      1.0000 0.46072  0.30870  0.90209  Biso   1.000  C
  H9       1.0000 0.49409  0.20639  0.84144  Biso   1.000  H
  H10      1.0000 0.26763  0.19308  0.73310  Biso   1.000  H
  H11      1.0000 0.30009  0.18157  0.82298  Biso   1.000  H
  C18      1.0000 0.28099  0.06349  0.79879  Biso   1.000  C
  C19      1.0000 0.88989  0.16266  0.74019  Biso   1.000  C
  C20      1.0000 0.01839  0.24719  0.60780  Biso   1.000  C
  H12      1.0000 0.81347  0.04836  0.58081  Biso   1.000  H
  H13      1.0000 0.78806  0.05859  0.68227  Biso   1.000  H
  C21      1.0000 0.94163  0.99322  0.63301  Biso   1.000  C
  H14      1.0000 0.44120  0.42917  0.61734  Biso   1.000  H
  O5       1.0000 0.39214  0.53337  0.79593  Biso   1.000  O
  C22      1.0000 0.43420  0.39768  0.88710  Biso   1.000  C
  C23      1.0000 0.47925  0.25969  0.99176  Biso   1.000  C
  H15      1.0000 0.29919  0.03857  0.74537  Biso   1.000  H
  H16      1.0000 0.19996  0.06125  0.83163  Biso   1.000  H
  H17      1.0000 0.32190  0.02946  0.83913  Biso   1.000  H
  C24      1.0000 0.93379  0.18837  0.79695  Biso   1.000  C
  H18      1.0000 0.82898  0.12443  0.76690  Biso   1.000  H
  O6       1.0000 0.06938  0.27871  0.51479  Biso   1.000  O
  C25      1.0000 0.06198  0.27468  0.66319  Biso   1.000  C
  H19      1.0000 0.97066  0.00319  0.67914  Biso   1.000  H
  C26      1.0000 0.90140  0.89962  0.66190  Biso   1.000  C
  H20      1.0000 0.00433  0.00002  0.57441  Biso   1.000  H
  H21      1.0000 0.41738  0.55901  0.74067  Biso   1.000  H
  O7       1.0000 0.42411  0.44152  0.95353  Biso   1.000  O
  C27      1.0000 0.59899  0.26680  0.98910  Biso   1.000  C
  H22      1.0000 0.42905  0.29072  0.03925  Biso   1.000  H
  C28      1.0000 0.44165  0.16488  0.02263  Biso   1.000  C
  C29      1.0000 0.88932  0.15388  0.90018  Biso   1.000  C
  C30      1.0000 0.01922  0.24619  0.75750  Biso   1.000  C
  H23      1.0000 0.01876  0.28818  0.48917  Biso   1.000  H
  O8       1.0000 0.15027  0.32998  0.62531  Biso   1.000  O
  H24      1.0000 0.83963  0.89234  0.72002  Biso   1.000  H
  H25      1.0000 0.96378  0.85778  0.66885  Biso   1.000  H
  H26      1.0000 0.87512  0.88860  0.61529  Biso   1.000  H
  H27      1.0000 0.41580  0.49579  0.93323  Biso   1.000  H
  C31      1.0000 0.68586  0.21290  0.94808  Biso   1.000  C
  C32      1.0000 0.62498  0.32697  0.02780  Biso   1.000  C
  H28      1.0000 0.49486  0.12977  0.98140  Biso   1.000  H
  H29      1.0000 0.36638  0.16424  0.01745  Biso   1.000  H
  C33      1.0000 0.43655  0.12168  0.12068  Biso   1.000  C
  C34      1.0000 0.79617  0.21629  0.94406  Biso   1.000  C
  H30      1.0000 0.95300  0.15430  0.92307  Biso   1.000  H
  C35      1.0000 0.85080  0.05909  0.93098  Biso   1.000  C
  O9       1.0000 0.06983  0.27889  0.80526  Biso   1.000  O
  H31      1.0000 0.15256  0.35591  0.66408  Biso   1.000  H
  H32      1.0000 0.66918  0.17143  0.92137  Biso   1.000  H
  O10      1.0000 0.54345  0.38427  0.06991  Biso   1.000  O
  C36      1.0000 0.73288  0.33183  0.02637  Biso   1.000  C
  H33      1.0000 0.51003  0.12704  0.12708  Biso   1.000  H
  H34      1.0000 0.37899  0.15403  0.16224  Biso   1.000  H
  C37      1.0000 0.40989  0.02821  0.14930  Biso   1.000  C
  C38      1.0000 0.81848  0.27729  0.98420  Biso   1.000  C
  H35      1.0000 0.81885  0.04382  0.99830  Biso   1.000  H
  H36      1.0000 0.78992  0.05622  0.90672  Biso   1.000  H
  C39      1.0000 0.94403  0.99042  0.90059  Biso   1.000  C
  H37      1.0000 0.02055  0.29173  0.85146  Biso   1.000  H
  H38      1.0000 0.49718  0.40040  0.04164  Biso   1.000  H
  O11      1.0000 0.76396  0.39078  0.06221  Biso   1.000  O
  H39      1.0000 0.47434  0.99346  0.11795  Biso   1.000  H
  H40      1.0000 0.34401  0.02093  0.13369  Biso   1.000  H
  H41      1.0000 0.39342  0.00792  0.21532  Biso   1.000  H
  O12      1.0000 0.92717  0.28418  0.98024  Biso   1.000  O
  H42      1.0000 0.97672  0.00513  0.83320  Biso   1.000  H
  C40      1.0000 0.89903  0.89809  0.93268  Biso   1.000  C
  H43      1.0000 0.00474  0.99178  0.92560  Biso   1.000  H
  H44      1.0000 0.70776  0.40614  0.10282  Biso   1.000  H
  H45      1.0000 0.92957  0.32600  0.00280  Biso   1.000  H
  H46      1.0000 0.87329  0.88117  0.99939  Biso   1.000  H
  H47      1.0000 0.95905  0.85638  0.90822  Biso   1.000  H
  H48      1.0000 0.83609  0.89747  0.91101  Biso   1.000  H
  O13      1.0000 0.46842  0.60445  0.49108  Biso   1.000  O
  C41      1.0000 0.38430  0.66428  0.47309  Biso   1.000  C
  H49      1.0000 0.47933  0.61046  0.53775  Biso   1.000  H
  C42      1.0000 0.41045  0.72846  0.39118  Biso   1.000  C
  C43      1.0000 0.27718  0.65769  0.53448  Biso   1.000  C
  C44      1.0000 0.52777  0.73586  0.32441  Biso   1.000  C
  C45      1.0000 0.32066  0.78429  0.37538  Biso   1.000  C
  O14      1.0000 0.24940  0.59561  0.61556  Biso   1.000  O
  C46      1.0000 0.19173  0.71529  0.51676  Biso   1.000  C
  C47      1.0000 0.54269  0.68850  0.24959  Biso   1.000  C
  H50      1.0000 0.57877  0.70391  0.35882  Biso   1.000  H
  C48      1.0000 0.56345  0.83086  0.28891  Biso   1.000  C
  C49      1.0000 0.21060  0.77914  0.43629  Biso   1.000  C
  H51      1.0000 0.33540  0.82816  0.32012  Biso   1.000  H
  H52      1.0000 0.30352  0.55884  0.61584  Biso   1.000  H
  O15      1.0000 0.08350  0.70849  0.57877  Biso   1.000  O
  C50      1.0000 0.57142  0.59907  0.26118  Biso   1.000  C
  C51      1.0000 0.52667  0.73256  0.16728  Biso   1.000  C
  H53      1.0000 0.54799  0.85742  0.34158  Biso   1.000  H
  H54      1.0000 0.51642  0.86395  0.25225  Biso   1.000  H
  C52      1.0000 0.68519  0.84195  0.23147  Biso   1.000  C
  C53      1.0000 0.11563  0.84276  0.41510  Biso   1.000  C
  H55      1.0000 0.07803  0.65957  0.61618  Biso   1.000  H
  C54      1.0000 0.58172  0.55536  0.19440  Biso   1.000  C
  O16      1.0000 0.59188  0.54759  0.33831  Biso   1.000  O
  C55      1.0000 0.53945  0.69128  0.09792  Biso   1.000  C
  H56      1.0000 0.50603  0.79355  0.15849  Biso   1.000  H
  H57      1.0000 0.73246  0.80690  0.26690  Biso   1.000  H
  H58      1.0000 0.70003  0.81843  0.17696  Biso   1.000  H
  C56      1.0000 0.71918  0.93649  0.20121  Biso   1.000  C
  C57      1.0000 0.06852  0.80938  0.35541  Biso   1.000  C
  H59      1.0000 0.05360  0.84124  0.47438  Biso   1.000  H
  C58      1.0000 0.15268  0.93737  0.37790  Biso   1.000  C
  O17      1.0000 0.60803  0.46661  0.20408  Biso   1.000  O
  C59      1.0000 0.56589  0.60231  0.11291  Biso   1.000  C
  H60      1.0000 0.55889  0.57082  0.38267  Biso   1.000  H
  C60      1.0000 0.52095  0.74031  0.00818  Biso   1.000  C
  H61      1.0000 0.70098  0.96135  0.25463  Biso   1.000  H
  H62      1.0000 0.80023  0.93875  0.16830  Biso   1.000  H
  H63      1.0000 0.67819  0.97052  0.16088  Biso   1.000  H
  C61      1.0000 0.11029  0.83726  0.25981  Biso   1.000  C
  C62      1.0000 0.98178  0.75279  0.39221  Biso   1.000  C
  H64      1.0000 0.18662  0.95162  0.41919  Biso   1.000  H
  H65      1.0000 0.21203  0.94139  0.31773  Biso   1.000  H
  C63      1.0000 0.05853  0.00677  0.36699  Biso   1.000  C
  H66      1.0000 0.58271  0.44091  0.25934  Biso   1.000  H
  O18      1.0000 0.57598  0.55846  0.04647  Biso   1.000  O
  C64      1.0000 0.40110  0.73318  0.01090  Biso   1.000  C
  H67      1.0000 0.57112  0.70926  0.96075  Biso   1.000  H
  C65      1.0000 0.55845  0.83504  0.97738  Biso   1.000  C
  C66      1.0000 0.06641  0.81156  0.20299  Biso   1.000  C
  H68      1.0000 0.17119  0.87555  0.23310  Biso   1.000  H
  O19      1.0000 0.93079  0.72127  0.48522  Biso   1.000  O
  C67      1.0000 0.93812  0.72524  0.33681  Biso   1.000  C
  H69      1.0000 0.02951  0.99679  0.32087  Biso   1.000  H
  H70      1.0000 0.99585  0.99990  0.42559  Biso   1.000  H
  C68      1.0000 0.09869  0.10036  0.33810  Biso   1.000  C
  H71      1.0000 0.58437  0.50419  0.06678  Biso   1.000  H
  C69      1.0000 0.31423  0.78708  0.05192  Biso   1.000  C
  C70      1.0000 0.37520  0.67295  0.97220  Biso   1.000  C
  H72      1.0000 0.50524  0.87015  0.01860  Biso   1.000  H
  H73      1.0000 0.63379  0.83568  0.98256  Biso   1.000  H
  C71      1.0000 0.56358  0.87825  0.87926  Biso   1.000  C
  C72      1.0000 0.11086  0.84604  0.09982  Biso   1.000  C
  C73      1.0000 0.98095  0.75379  0.24251  Biso   1.000  C
  H74      1.0000 0.98141  0.71174  0.51084  Biso   1.000  H
  O20      1.0000 0.84982  0.67001  0.37469  Biso   1.000  O
  H75      1.0000 0.16057  0.10765  0.27991  Biso   1.000  H
  H76      1.0000 0.03643  0.14216  0.33109  Biso   1.000  H
  H77      1.0000 0.12500  0.11133  0.38464  Biso   1.000  H
  C74      1.0000 0.20394  0.78371  0.05587  Biso   1.000  C
  H78      1.0000 0.33091  0.82855  0.07863  Biso   1.000  H
  O21      1.0000 0.45667  0.61572  0.93002  Biso   1.000  O
  C75      1.0000 0.26731  0.66817  0.97356  Biso   1.000  C
  H79      1.0000 0.49009  0.87289  0.87285  Biso   1.000  H
  H80      1.0000 0.62118  0.84595  0.83776  Biso   1.000  H
  C76      1.0000 0.59031  0.97179  0.85064  Biso   1.000  C
  H81      1.0000 0.04719  0.84570  0.07686  Biso   1.000  H
  C77      1.0000 0.14937  0.94089  0.06902  Biso   1.000  C
  O22      1.0000 0.93037  0.72110  0.19467  Biso   1.000  O
  H82      1.0000 0.84756  0.64409  0.33586  Biso   1.000  H
  C78      1.0000 0.18160  0.72269  0.01581  Biso   1.000  C
  H83      1.0000 0.50298  0.59958  0.95837  Biso   1.000  H
  O23      1.0000 0.23614  0.60914  0.93779  Biso   1.000  O
  H84      1.0000 0.65608  0.97905  0.86631  Biso   1.000  H
  H85      1.0000 0.60674  0.99206  0.78468  Biso   1.000  H
  H86      1.0000 0.52584  0.00645  0.88205  Biso   1.000  H
  H87      1.0000 0.18123  0.95616  0.00170  Biso   1.000  H
  H88      1.0000 0.21019  0.94378  0.09321  Biso   1.000  H
  C79      1.0000 0.05606  0.00956  0.09941  Biso   1.000  C
  H89      1.0000 0.97965  0.70827  0.14847  Biso   1.000  H
  O24      1.0000 0.07295  0.71575  0.01969  Biso   1.000  O
  H90      1.0000 0.29234  0.59378  0.89718  Biso   1.000  H
  H91      1.0000 0.02348  0.99481  0.16674  Biso   1.000  H
  H92      1.0000 0.99546  0.00822  0.07434  Biso   1.000  H
  C80      1.0000 0.10106  0.10189  0.06732  Biso   1.000  C
  H93      1.0000 0.07052  0.67398  0.99721  Biso   1.000  H
  H94      1.0000 0.12683  0.11883  0.00055  Biso   1.000  H
  H95      1.0000 0.04116  0.14355  0.09171  Biso   1.000  H
  H96      1.0000 0.16407  0.10252  0.08899  Biso   1.000  H
