data_image0
_cell_length_a       12.636
_cell_length_b       15.684
_cell_length_c       16.102
_cell_angle_alpha    74.94
_cell_angle_beta     69.53
_cell_angle_gamma    82.58

_symmetry_space_group_name_H-M    "P 1"
_symmetry_int_tables_number       1

loop_
  _symmetry_equiv_pos_as_xyz
  'x, y, z'

loop_
  _atom_site_label
  _atom_site_occupancy
  _atom_site_fract_x
  _atom_site_fract_y
  _atom_site_fract_z
  _atom_site_thermal_displace_type
  _atom_site_B_iso_or_equiv
  _atom_site_type_symbol
  O1       1.0000 0.53110  0.39651  0.50841  Biso   1.000  O
  H1       1.0000 0.51408  0.38611  0.46617  Biso   1.000  H
  C1       1.0000 0.61556  0.33638  0.52627  Biso   1.000  C
  C2       1.0000 0.72334  0.34288  0.46426  Biso   1.000  C
  C3       1.0000 0.59109  0.27172  0.60762  Biso   1.000  C
  O2       1.0000 0.75096  0.40571  0.38359  Biso   1.000  O
  C4       1.0000 0.81038  0.28540  0.48232  Biso   1.000  C
  C5       1.0000 0.47197  0.26369  0.67500  Biso   1.000  C
  C6       1.0000 0.68005  0.21590  0.62431  Biso   1.000  C
  H2       1.0000 0.69721  0.44343  0.38427  Biso   1.000  H
  O3       1.0000 0.91757  0.29348  0.42073  Biso   1.000  O
  C7       1.0000 0.78977  0.22123  0.56265  Biso   1.000  C
  C8       1.0000 0.45728  0.31108  0.75043  Biso   1.000  C
  H3       1.0000 0.42074  0.29600  0.64073  Biso   1.000  H
  C9       1.0000 0.43509  0.16777  0.71111  Biso   1.000  C
  H4       1.0000 0.66542  0.17248  0.68004  Biso   1.000  H
  H5       1.0000 0.91482  0.32368  0.37003  Biso   1.000  H
  C10      1.0000 0.88555  0.15833  0.58398  Biso   1.000  C
  C11      1.0000 0.42879  0.40101  0.73850  Biso   1.000  C
  C12      1.0000 0.47325  0.26683  0.83225  Biso   1.000  C
  H6       1.0000 0.44998  0.14096  0.65858  Biso   1.000  H
  H7       1.0000 0.48220  0.13425  0.74763  Biso   1.000  H
  C13      1.0000 0.31268  0.15769  0.76869  Biso   1.000  C
  C14      1.0000 0.93285  0.19161  0.64434  Biso   1.000  C
  H8       1.0000 0.94808  0.16038  0.52463  Biso   1.000  H
  C15      1.0000 0.84897  0.06289  0.62049  Biso   1.000  C
  O4       1.0000 0.40803  0.45258  0.66158  Biso   1.000  O
  C16      1.0000 0.41915  0.44456  0.80555  Biso   1.000  C
  C17      1.0000 0.46152  0.30792  0.90168  Biso   1.000  C
  H9       1.0000 0.49322  0.20540  0.84098  Biso   1.000  H
  H10      1.0000 0.26527  0.19262  0.73305  Biso   1.000  H
  H11      1.0000 0.29816  0.18218  0.82265  Biso   1.000  H
  C18      1.0000 0.27808  0.06252  0.80030  Biso   1.000  C
  C19      1.0000 0.89278  0.16263  0.73918  Biso   1.000  C
  C20      1.0000 0.01847  0.25190  0.60741  Biso   1.000  C
  H12      1.0000 0.81563  0.04878  0.57873  Biso   1.000  H
  H13      1.0000 0.78876  0.05852  0.68045  Biso   1.000  H
  C21      1.0000 0.94281  0.99292  0.63201  Biso   1.000  C
  H14      1.0000 0.44726  0.43263  0.61607  Biso   1.000  H
  O5       1.0000 0.39221  0.53401  0.79601  Biso   1.000  O
  C22      1.0000 0.43504  0.39761  0.88676  Biso   1.000  C
  C23      1.0000 0.47870  0.25913  0.99169  Biso   1.000  C
  H15      1.0000 0.29241  0.03770  0.74722  Biso   1.000  H
  H16      1.0000 0.19734  0.06011  0.83600  Biso   1.000  H
  H17      1.0000 0.32204  0.02805  0.83818  Biso   1.000  H
  C24      1.0000 0.93514  0.18892  0.79662  Biso   1.000  C
  H18      1.0000 0.83300  0.12268  0.76569  Biso   1.000  H
  O6       1.0000 0.06670  0.28493  0.51482  Biso   1.000  O
  C25      1.0000 0.06126  0.27993  0.66308  Biso   1.000  C
  H19      1.0000 0.97144  0.00299  0.67834  Biso   1.000  H
  C26      1.0000 0.90337  0.89972  0.66029  Biso   1.000  C
  H20      1.0000 0.00625  0.99997  0.57362  Biso   1.000  H
  H21      1.0000 0.43112  0.56153  0.74409  Biso   1.000  H
  O7       1.0000 0.42360  0.44124  0.95374  Biso   1.000  O
  C27      1.0000 0.59898  0.26619  0.98917  Biso   1.000  C
  H22      1.0000 0.42793  0.29033  0.03897  Biso   1.000  H
  C28      1.0000 0.44232  0.16304  0.02283  Biso   1.000  C
  C29      1.0000 0.89036  0.15400  0.89991  Biso   1.000  C
  C30      1.0000 0.02015  0.24950  0.75669  Biso   1.000  C
  H23      1.0000 0.01608  0.29448  0.48913  Biso   1.000  H
  O8       1.0000 0.14716  0.33848  0.62561  Biso   1.000  O
  H24      1.0000 0.84302  0.89140  0.71949  Biso   1.000  H
  H25      1.0000 0.96687  0.85794  0.66512  Biso   1.000  H
  H26      1.0000 0.87470  0.88930  0.61470  Biso   1.000  H
  H27      1.0000 0.43555  0.49505  0.92996  Biso   1.000  H
  C31      1.0000 0.68702  0.21264  0.94726  Biso   1.000  C
  C32      1.0000 0.62535  0.32714  0.02794  Biso   1.000  C
  H28      1.0000 0.49653  0.12788  0.98201  Biso   1.000  H
  H29      1.0000 0.36685  0.16134  0.01751  Biso   1.000  H
  C33      1.0000 0.43715  0.12134  0.12080  Biso   1.000  C
  C34      1.0000 0.79730  0.21585  0.94440  Biso   1.000  C
  H30      1.0000 0.95447  0.15457  0.92260  Biso   1.000  H
  C35      1.0000 0.85271  0.05841  0.93050  Biso   1.000  C
  O9       1.0000 0.06843  0.28309  0.80534  Biso   1.000  O
  H31      1.0000 0.11943  0.39042  0.62138  Biso   1.000  H
  H32      1.0000 0.67083  0.17178  0.91926  Biso   1.000  H
  O10      1.0000 0.54325  0.38391  0.07011  Biso   1.000  O
  C36      1.0000 0.73428  0.33174  0.02691  Biso   1.000  C
  H33      1.0000 0.51128  0.12676  0.12673  Biso   1.000  H
  H34      1.0000 0.37962  0.15460  0.16175  Biso   1.000  H
  C37      1.0000 0.40902  0.02629  0.15099  Biso   1.000  C
  C38      1.0000 0.81957  0.27750  0.98433  Biso   1.000  C
  H35      1.0000 0.82068  0.04294  0.99782  Biso   1.000  H
  H36      1.0000 0.79117  0.05540  0.90666  Biso   1.000  H
  C39      1.0000 0.94488  0.98908  0.90046  Biso   1.000  C
  H37      1.0000 0.02134  0.28341  0.85726  Biso   1.000  H
  H38      1.0000 0.49678  0.39989  0.04183  Biso   1.000  H
  O11      1.0000 0.76444  0.39087  0.06316  Biso   1.000  O
  H39      1.0000 0.47163  0.99136  0.11753  Biso   1.000  H
  H40      1.0000 0.34006  0.01934  0.13899  Biso   1.000  H
  H41      1.0000 0.39675  0.00570  0.21646  Biso   1.000  H
  O12      1.0000 0.92856  0.28386  0.98092  Biso   1.000  O
  H42      1.0000 0.97818  0.00414  0.83328  Biso   1.000  H
  C40      1.0000 0.89894  0.89659  0.93187  Biso   1.000  C
  H43      1.0000 0.00549  0.98972  0.92601  Biso   1.000  H
  H44      1.0000 0.70961  0.40141  0.10765  Biso   1.000  H
  H45      1.0000 0.92990  0.32234  0.00831  Biso   1.000  H
  H46      1.0000 0.87105  0.87971  0.99857  Biso   1.000  H
  H47      1.0000 0.95949  0.85452  0.90843  Biso   1.000  H
  H48      1.0000 0.83701  0.89627  0.90863  Biso   1.000  H
  O13      1.0000 0.46896  0.60354  0.49152  Biso   1.000  O
  C41      1.0000 0.38457  0.66367  0.47367  Biso   1.000  C
  H49      1.0000 0.48606  0.61394  0.53376  Biso   1.000  H
  C42      1.0000 0.40904  0.72833  0.39231  Biso   1.000  C
  C43      1.0000 0.27677  0.65709  0.53574  Biso   1.000  C
  C44      1.0000 0.52816  0.73636  0.32493  Biso   1.000  C
  C45      1.0000 0.32009  0.78409  0.37562  Biso   1.000  C
  O14      1.0000 0.24914  0.59433  0.61641  Biso   1.000  O
  C46      1.0000 0.18976  0.71465  0.51761  Biso   1.000  C
  C47      1.0000 0.54284  0.68889  0.24957  Biso   1.000  C
  H50      1.0000 0.57929  0.70404  0.35927  Biso   1.000  H
  C48      1.0000 0.56501  0.83227  0.28889  Biso   1.000  C
  C49      1.0000 0.21036  0.77882  0.43728  Biso   1.000  C
  H51      1.0000 0.33471  0.82757  0.31989  Biso   1.000  H
  H52      1.0000 0.30292  0.55662  0.61566  Biso   1.000  H
  O15      1.0000 0.08255  0.70649  0.57927  Biso   1.000  O
  C50      1.0000 0.57133  0.59896  0.26150  Biso   1.000  C
  C51      1.0000 0.52677  0.73320  0.16775  Biso   1.000  C
  H53      1.0000 0.55013  0.85907  0.34142  Biso   1.000  H
  H54      1.0000 0.51792  0.86572  0.25237  Biso   1.000  H
  C52      1.0000 0.68743  0.84234  0.23131  Biso   1.000  C
  C53      1.0000 0.11455  0.84171  0.41603  Biso   1.000  C
  H55      1.0000 0.08522  0.67629  0.62997  Biso   1.000  H
  C54      1.0000 0.58088  0.55541  0.19445  Biso   1.000  C
  O16      1.0000 0.59208  0.54745  0.33842  Biso   1.000  O
  C55      1.0000 0.53861  0.69213  0.09825  Biso   1.000  C
  H56      1.0000 0.50681  0.79463  0.15902  Biso   1.000  H
  H57      1.0000 0.73486  0.80743  0.26688  Biso   1.000  H
  H58      1.0000 0.70194  0.81785  0.17735  Biso   1.000  H
  C56      1.0000 0.72203  0.93752  0.19970  Biso   1.000  C
  C57      1.0000 0.06725  0.80843  0.35566  Biso   1.000  C
  H59      1.0000 0.05206  0.83968  0.47530  Biso   1.000  H
  C58      1.0000 0.15114  0.93715  0.37951  Biso   1.000  C
  O17      1.0000 0.60790  0.46602  0.20399  Biso   1.000  O
  C59      1.0000 0.56510  0.60237  0.11317  Biso   1.000  C
  H60      1.0000 0.55285  0.56741  0.38393  Biso   1.000  H
  C60      1.0000 0.52142  0.74084  0.00831  Biso   1.000  C
  H61      1.0000 0.70772  0.96235  0.25271  Biso   1.000  H
  H62      1.0000 0.80277  0.93986  0.16400  Biso   1.000  H
  H63      1.0000 0.67810  0.97200  0.16175  Biso   1.000  H
  C61      1.0000 0.10733  0.83740  0.26082  Biso   1.000  C
  C62      1.0000 0.98164  0.74814  0.39259  Biso   1.000  C
  H64      1.0000 0.18450  0.95127  0.42120  Biso   1.000  H
  H65      1.0000 0.21135  0.94152  0.31955  Biso   1.000  H
  C63      1.0000 0.05729  0.00711  0.36799  Biso   1.000  C
  H66      1.0000 0.56902  0.43852  0.25584  Biso   1.000  H
  O18      1.0000 0.57650  0.55879  0.04626  Biso   1.000  O
  C64      1.0000 0.40106  0.73378  0.01083  Biso   1.000  C
  H67      1.0000 0.57221  0.70966  0.96096  Biso   1.000  H
  C65      1.0000 0.55779  0.83700  0.97718  Biso   1.000  C
  C66      1.0000 0.06488  0.81112  0.20338  Biso   1.000  C
  H68      1.0000 0.16710  0.87736  0.23431  Biso   1.000  H
  O19      1.0000 0.93344  0.71506  0.48511  Biso   1.000  O
  C67      1.0000 0.93884  0.72011  0.33692  Biso   1.000  C
  H69      1.0000 0.02869  0.99706  0.32159  Biso   1.000  H
  H70      1.0000 0.99386  0.00007  0.42638  Biso   1.000  H
  C68      1.0000 0.09666  0.10032  0.33972  Biso   1.000  C
  H71      1.0000 0.56459  0.50500  0.06997  Biso   1.000  H
  C69      1.0000 0.31312  0.78742  0.05267  Biso   1.000  C
  C70      1.0000 0.37467  0.67290  0.97207  Biso   1.000  C
  H72      1.0000 0.50358  0.87215  0.01799  Biso   1.000  H
  H73      1.0000 0.63329  0.83872  0.98242  Biso   1.000  H
  C71      1.0000 0.56287  0.87870  0.87920  Biso   1.000  C
  C72      1.0000 0.10967  0.84604  0.10009  Biso   1.000  C
  C73      1.0000 0.97988  0.75054  0.24331  Biso   1.000  C
  H74      1.0000 0.98405  0.70557  0.51080  Biso   1.000  H
  O20      1.0000 0.85295  0.66149  0.37440  Biso   1.000  O
  H75      1.0000 0.15711  0.10865  0.28044  Biso   1.000  H
  H76      1.0000 0.03324  0.14210  0.33488  Biso   1.000  H
  H77      1.0000 0.12535  0.11075  0.38523  Biso   1.000  H
  C74      1.0000 0.20280  0.78419  0.05560  Biso   1.000  C
  H78      1.0000 0.32932  0.82821  0.08067  Biso   1.000  H
  O21      1.0000 0.45678  0.61613  0.92989  Biso   1.000  O
  C75      1.0000 0.26582  0.66830  0.97309  Biso   1.000  C
  H79      1.0000 0.48887  0.87323  0.87320  Biso   1.000  H
  H80      1.0000 0.62040  0.84544  0.83825  Biso   1.000  H
  C76      1.0000 0.59112  0.97369  0.84895  Biso   1.000  C
  H81      1.0000 0.04567  0.84548  0.07733  Biso   1.000  H
  C77      1.0000 0.14739  0.94162  0.06950  Biso   1.000  C
  O22      1.0000 0.93172  0.71690  0.19459  Biso   1.000  O
  H82      1.0000 0.88067  0.60962  0.37862  Biso   1.000  H
  C78      1.0000 0.18046  0.72254  0.01567  Biso   1.000  C
  H83      1.0000 0.50332  0.60014  0.95817  Biso   1.000  H
  O23      1.0000 0.23558  0.60917  0.93684  Biso   1.000  O
  H84      1.0000 0.65998  0.98064  0.86101  Biso   1.000  H
  H85      1.0000 0.60338  0.99435  0.78347  Biso   1.000  H
  H86      1.0000 0.52847  0.00868  0.88247  Biso   1.000  H
  H87      1.0000 0.17942  0.95710  0.00218  Biso   1.000  H
  H88      1.0000 0.20893  0.94464  0.09334  Biso   1.000  H
  C79      1.0000 0.05526  0.01090  0.09948  Biso   1.000  C
  H89      1.0000 0.97872  0.71664  0.14267  Biso   1.000  H
  O24      1.0000 0.07146  0.71618  0.01908  Biso   1.000  O
  H90      1.0000 0.29050  0.59863  0.89235  Biso   1.000  H
  H91      1.0000 0.02192  0.99590  0.16672  Biso   1.000  H
  H92      1.0000 0.99462  0.01031  0.07399  Biso   1.000  H
  C80      1.0000 0.10119  0.10346  0.06807  Biso   1.000  C
  H93      1.0000 0.07014  0.67763  0.99169  Biso   1.000  H
  H94      1.0000 0.12906  0.12032  0.00143  Biso   1.000  H
  H95      1.0000 0.04064  0.14553  0.09150  Biso   1.000  H
  H96      1.0000 0.16309  0.10377  0.09137  Biso   1.000  H
