data_image0
_cell_length_a       23.551
_cell_length_b       23.551
_cell_length_c       14.596
_cell_angle_alpha    90
_cell_angle_beta     90
_cell_angle_gamma    90

_symmetry_space_group_name_H-M    "P 1"
_symmetry_int_tables_number       1

loop_
  _symmetry_equiv_pos_as_xyz
  'x, y, z'

loop_
  _atom_site_label
  _atom_site_occupancy
  _atom_site_fract_x
  _atom_site_fract_y
  _atom_site_fract_z
  _atom_site_thermal_displace_type
  _atom_site_B_iso_or_equiv
  _atom_site_type_symbol
  C1       1.0000 0.71458  0.78829  0.47787  Biso   1.000  C
  C2       1.0000 0.69899  0.73190  0.47438  Biso   1.000  C
  C3       1.0000 0.77109  0.80260  0.48589  Biso   1.000  C
  C4       1.0000 0.67330  0.83589  0.46896  Biso   1.000  C
  C5       1.0000 0.73950  0.68800  0.48801  Biso   1.000  C
  H1       1.0000 0.66061  0.72230  0.46273  Biso   1.000  H
  C6       1.0000 0.81041  0.75942  0.49979  Biso   1.000  C
  H2       1.0000 0.78290  0.84111  0.48212  Biso   1.000  H
  H3       1.0000 0.64978  0.83011  0.41443  Biso   1.000  H
  H4       1.0000 0.69390  0.87190  0.46341  Biso   1.000  H
  H5       1.0000 0.64889  0.83708  0.52350  Biso   1.000  H
  C7       1.0000 0.79462  0.70180  0.50370  Biso   1.000  C
  H6       1.0000 0.72808  0.64931  0.48623  Biso   1.000  H
  H7       1.0000 0.84931  0.76910  0.50699  Biso   1.000  H
  S1       1.0000 0.84447  0.64842  0.52658  Biso   1.000  S
  N1       1.0000 0.86990  0.62622  0.43067  Biso   1.000  N
  O1       1.0000 0.89130  0.67288  0.57379  Biso   1.000  O
  O2       1.0000 0.81347  0.60286  0.56790  Biso   1.000  O
  C8       1.0000 0.83631  0.58558  0.37270  Biso   1.000  C
  C9       1.0000 0.91189  0.65900  0.37887  Biso   1.000  C
  C10      1.0000 0.87100  0.58409  0.28857  Biso   1.000  C
  H8       1.0000 0.83360  0.54758  0.40148  Biso   1.000  H
  H9       1.0000 0.79759  0.60010  0.36037  Biso   1.000  H
  C11      1.0000 0.91461  0.62528  0.29179  Biso   1.000  C
  H10      1.0000 0.94909  0.65989  0.41052  Biso   1.000  H
  H11      1.0000 0.89882  0.69831  0.36770  Biso   1.000  H
  C12      1.0000 0.87708  0.55301  0.21019  Biso   1.000  C
  C13      1.0000 0.94748  0.61870  0.21410  Biso   1.000  C
  C14      1.0000 0.84629  0.49998  0.17402  Biso   1.000  C
  N2       1.0000 0.92472  0.57505  0.16498  Biso   1.000  N
  C15      1.0000 0.00000  0.65178  0.18019  Biso   1.000  C
  C16      1.0000 0.87708  0.44699  0.21019  Biso   1.000  C
  C17      1.0000 0.78710  0.49998  0.20917  Biso   1.000  C
  C18      1.0000 0.84340  0.49998  0.06981  Biso   1.000  C
  H12      1.0000 0.93801  0.56248  0.11243  Biso   1.000  H
  C19      1.0000 0.05248  0.61870  0.21410  Biso   1.000  C
  C20      1.0000 0.00000  0.65861  0.07838  Biso   1.000  C
  C21      1.0000 0.00000  0.71148  0.21821  Biso   1.000  C
  C22      1.0000 0.87100  0.41591  0.28857  Biso   1.000  C
  N3       1.0000 0.92472  0.42495  0.16498  Biso   1.000  N
  H13      1.0000 0.76710  0.53331  0.18923  Biso   1.000  H
  H14      1.0000 0.76710  0.46669  0.18923  Biso   1.000  H
  H15      1.0000 0.78948  0.49998  0.27480  Biso   1.000  H
  H16      1.0000 0.82391  0.53331  0.04851  Biso   1.000  H
  H17      1.0000 0.82391  0.46669  0.04851  Biso   1.000  H
  H18      1.0000 0.88158  0.49998  0.04659  Biso   1.000  H
  N4       1.0000 0.07528  0.57505  0.16498  Biso   1.000  N
  C23      1.0000 0.08539  0.62528  0.29179  Biso   1.000  C
  H19      1.0000 0.96671  0.67908  0.05988  Biso   1.000  H
  H20      1.0000 0.03329  0.67908  0.05988  Biso   1.000  H
  H21      1.0000 0.00000  0.62180  0.05008  Biso   1.000  H
  H22      1.0000 0.96671  0.73148  0.19827  Biso   1.000  H
  H23      1.0000 0.03329  0.73148  0.19827  Biso   1.000  H
  H24      1.0000 0.00000  0.70889  0.28378  Biso   1.000  H
  C24      1.0000 0.83631  0.41438  0.37270  Biso   1.000  C
  C25      1.0000 0.91461  0.37472  0.29179  Biso   1.000  C
  C26      1.0000 0.94748  0.38130  0.21410  Biso   1.000  C
  H25      1.0000 0.93801  0.43752  0.11243  Biso   1.000  H
  C27      1.0000 0.12288  0.55301  0.21019  Biso   1.000  C
  H26      1.0000 0.06199  0.56248  0.11243  Biso   1.000  H
  C28      1.0000 0.12900  0.58409  0.28857  Biso   1.000  C
  C29      1.0000 0.08811  0.65900  0.37887  Biso   1.000  C
  N5       1.0000 0.86990  0.37378  0.43067  Biso   1.000  N
  H27      1.0000 0.83360  0.45238  0.40148  Biso   1.000  H
  H28      1.0000 0.79759  0.39990  0.36037  Biso   1.000  H
  C30      1.0000 0.91189  0.34100  0.37887  Biso   1.000  C
  C31      1.0000 0.00000  0.34818  0.18019  Biso   1.000  C
  C32      1.0000 0.15371  0.49998  0.17402  Biso   1.000  C
  C33      1.0000 0.16369  0.58558  0.37270  Biso   1.000  C
  N6       1.0000 0.13010  0.62622  0.43067  Biso   1.000  N
  H29      1.0000 0.05091  0.65989  0.41052  Biso   1.000  H
  H30      1.0000 0.10118  0.69831  0.36770  Biso   1.000  H
  S2       1.0000 0.84447  0.35158  0.52658  Biso   1.000  S
  H31      1.0000 0.94909  0.34011  0.41052  Biso   1.000  H
  H32      1.0000 0.89882  0.30169  0.36770  Biso   1.000  H
  C34      1.0000 0.05248  0.38130  0.21410  Biso   1.000  C
  C35      1.0000 0.00000  0.34139  0.07838  Biso   1.000  C
  C36      1.0000 0.00000  0.28848  0.21821  Biso   1.000  C
  C37      1.0000 0.12288  0.44699  0.21019  Biso   1.000  C
  C38      1.0000 0.21290  0.49998  0.20917  Biso   1.000  C
  C39      1.0000 0.15660  0.49998  0.06981  Biso   1.000  C
  H33      1.0000 0.16640  0.54758  0.40148  Biso   1.000  H
  H34      1.0000 0.20241  0.60010  0.36037  Biso   1.000  H
  S3       1.0000 0.15553  0.64842  0.52658  Biso   1.000  S
  C40      1.0000 0.79462  0.29820  0.50370  Biso   1.000  C
  O3       1.0000 0.89130  0.32708  0.57379  Biso   1.000  O
  O4       1.0000 0.81347  0.39714  0.56790  Biso   1.000  O
  N7       1.0000 0.07528  0.42495  0.16498  Biso   1.000  N
  C41      1.0000 0.08539  0.37472  0.29179  Biso   1.000  C
  H35      1.0000 0.96671  0.32088  0.05988  Biso   1.000  H
  H36      1.0000 0.03329  0.32088  0.05988  Biso   1.000  H
  H37      1.0000 0.00000  0.37820  0.05008  Biso   1.000  H
  H38      1.0000 0.96671  0.26848  0.19827  Biso   1.000  H
  H39      1.0000 0.03329  0.26848  0.19827  Biso   1.000  H
  H40      1.0000 0.00000  0.29111  0.28378  Biso   1.000  H
  C42      1.0000 0.12900  0.41591  0.28857  Biso   1.000  C
  H41      1.0000 0.23290  0.53331  0.18923  Biso   1.000  H
  H42      1.0000 0.23290  0.46669  0.18923  Biso   1.000  H
  H43      1.0000 0.21048  0.49998  0.27480  Biso   1.000  H
  H44      1.0000 0.17609  0.53331  0.04851  Biso   1.000  H
  H45      1.0000 0.17609  0.46669  0.04851  Biso   1.000  H
  H46      1.0000 0.11838  0.49998  0.04659  Biso   1.000  H
  O5       1.0000 0.10870  0.67288  0.57379  Biso   1.000  O
  O6       1.0000 0.18649  0.60286  0.56790  Biso   1.000  O
  C43      1.0000 0.20538  0.70180  0.50370  Biso   1.000  C
  C44      1.0000 0.73950  0.31200  0.48801  Biso   1.000  C
  C45      1.0000 0.81041  0.24058  0.49979  Biso   1.000  C
  H47      1.0000 0.06199  0.43752  0.11243  Biso   1.000  H
  C46      1.0000 0.08811  0.34100  0.37887  Biso   1.000  C
  C47      1.0000 0.16369  0.41438  0.37270  Biso   1.000  C
  C48      1.0000 0.26050  0.68800  0.48801  Biso   1.000  C
  C49      1.0000 0.18959  0.75942  0.49979  Biso   1.000  C
  C50      1.0000 0.69899  0.26810  0.47438  Biso   1.000  C
  H48      1.0000 0.72808  0.35069  0.48623  Biso   1.000  H
  C51      1.0000 0.77109  0.19740  0.48589  Biso   1.000  C
  H49      1.0000 0.84931  0.23090  0.50699  Biso   1.000  H
  N8       1.0000 0.13010  0.37378  0.43067  Biso   1.000  N
  H50      1.0000 0.05091  0.34011  0.41052  Biso   1.000  H
  H51      1.0000 0.10118  0.30169  0.36770  Biso   1.000  H
  H52      1.0000 0.16640  0.45238  0.40148  Biso   1.000  H
  H53      1.0000 0.20241  0.39990  0.36037  Biso   1.000  H
  H54      1.0000 0.27188  0.64931  0.48623  Biso   1.000  H
  C52      1.0000 0.30101  0.73190  0.47438  Biso   1.000  C
  C53      1.0000 0.22891  0.80260  0.48589  Biso   1.000  C
  H55      1.0000 0.15069  0.76910  0.50699  Biso   1.000  H
  C54      1.0000 0.71458  0.21171  0.47787  Biso   1.000  C
  H56      1.0000 0.66061  0.27770  0.46273  Biso   1.000  H
  H57      1.0000 0.78290  0.15889  0.48212  Biso   1.000  H
  S4       1.0000 0.15553  0.35158  0.52658  Biso   1.000  S
  H58      1.0000 0.33939  0.72230  0.46273  Biso   1.000  H
  C55      1.0000 0.28538  0.78829  0.47787  Biso   1.000  C
  H59      1.0000 0.21710  0.84111  0.48212  Biso   1.000  H
  C56      1.0000 0.67330  0.16411  0.46896  Biso   1.000  C
  O7       1.0000 0.10870  0.32708  0.57379  Biso   1.000  O
  O8       1.0000 0.18649  0.39714  0.56790  Biso   1.000  O
  C57      1.0000 0.20538  0.29820  0.50370  Biso   1.000  C
  C58      1.0000 0.32670  0.83589  0.46896  Biso   1.000  C
  H60      1.0000 0.64978  0.16989  0.41443  Biso   1.000  H
  H61      1.0000 0.69390  0.12810  0.46341  Biso   1.000  H
  H62      1.0000 0.64889  0.16288  0.52350  Biso   1.000  H
  C59      1.0000 0.26050  0.31200  0.48801  Biso   1.000  C
  C60      1.0000 0.18959  0.24058  0.49979  Biso   1.000  C
  H63      1.0000 0.35022  0.83011  0.41443  Biso   1.000  H
  H64      1.0000 0.30610  0.87190  0.46341  Biso   1.000  H
  H65      1.0000 0.35111  0.83708  0.52350  Biso   1.000  H
  H66      1.0000 0.27188  0.35069  0.48623  Biso   1.000  H
  C61      1.0000 0.30101  0.26810  0.47438  Biso   1.000  C
  C62      1.0000 0.22891  0.19740  0.48589  Biso   1.000  C
  H67      1.0000 0.15069  0.23090  0.50699  Biso   1.000  H
  H68      1.0000 0.33939  0.27770  0.46273  Biso   1.000  H
  C63      1.0000 0.28538  0.21171  0.47787  Biso   1.000  C
  H69      1.0000 0.21710  0.15889  0.48212  Biso   1.000  H
  C64      1.0000 0.32670  0.16411  0.46896  Biso   1.000  C
  H70      1.0000 0.35022  0.16989  0.41443  Biso   1.000  H
  H71      1.0000 0.30610  0.12810  0.46341  Biso   1.000  H
  H72      1.0000 0.35111  0.16288  0.52350  Biso   1.000  H
  C65      1.0000 0.73190  0.80099  0.72438  Biso   1.000  C
  C66      1.0000 0.68800  0.76048  0.73801  Biso   1.000  C
  H73      1.0000 0.72230  0.83941  0.71266  Biso   1.000  H
  C67      1.0000 0.78829  0.78540  0.72787  Biso   1.000  C
  C68      1.0000 0.70180  0.70541  0.75370  Biso   1.000  C
  H74      1.0000 0.64931  0.77190  0.73623  Biso   1.000  H
  C69      1.0000 0.80260  0.72889  0.73589  Biso   1.000  C
  C70      1.0000 0.83589  0.82672  0.71896  Biso   1.000  C
  S5       1.0000 0.64842  0.65551  0.77658  Biso   1.000  S
  C71      1.0000 0.75942  0.68961  0.74979  Biso   1.000  C
  H75      1.0000 0.84111  0.71708  0.73212  Biso   1.000  H
  H76      1.0000 0.83011  0.85020  0.66443  Biso   1.000  H
  H77      1.0000 0.87190  0.80608  0.71341  Biso   1.000  H
  H78      1.0000 0.83708  0.85109  0.77350  Biso   1.000  H
  N9       1.0000 0.62622  0.63008  0.68067  Biso   1.000  N
  O9       1.0000 0.67288  0.60868  0.82379  Biso   1.000  O
  O10      1.0000 0.60286  0.68651  0.81790  Biso   1.000  O
  H79      1.0000 0.76910  0.65072  0.75699  Biso   1.000  H
  C72      1.0000 0.65900  0.58809  0.62887  Biso   1.000  C
  C73      1.0000 0.58558  0.66371  0.62270  Biso   1.000  C
  C74      1.0000 0.62528  0.58541  0.54179  Biso   1.000  C
  H80      1.0000 0.65989  0.55089  0.66052  Biso   1.000  H
  H81      1.0000 0.69831  0.60121  0.61770  Biso   1.000  H
  C75      1.0000 0.58409  0.62902  0.53857  Biso   1.000  C
  H82      1.0000 0.54758  0.66638  0.65148  Biso   1.000  H
  H83      1.0000 0.60010  0.70239  0.61037  Biso   1.000  H
  C76      1.0000 0.61870  0.55250  0.46410  Biso   1.000  C
  C77      1.0000 0.55301  0.62290  0.46019  Biso   1.000  C
  C78      1.0000 0.65178  0.49998  0.43019  Biso   1.000  C
  N10      1.0000 0.57505  0.57530  0.41498  Biso   1.000  N
  C79      1.0000 0.49998  0.65369  0.42402  Biso   1.000  C
  C80      1.0000 0.61870  0.44750  0.46410  Biso   1.000  C
  C81      1.0000 0.65861  0.49998  0.32838  Biso   1.000  C
  C82      1.0000 0.71148  0.49998  0.46821  Biso   1.000  C
  H84      1.0000 0.56248  0.56201  0.36243  Biso   1.000  H
  C83      1.0000 0.44699  0.62290  0.46019  Biso   1.000  C
  C84      1.0000 0.49998  0.71288  0.45917  Biso   1.000  C
  C85      1.0000 0.49998  0.65662  0.31981  Biso   1.000  C
  N11      1.0000 0.57505  0.42470  0.41498  Biso   1.000  N
  C86      1.0000 0.62528  0.41459  0.54179  Biso   1.000  C
  H85      1.0000 0.67908  0.53331  0.30988  Biso   1.000  H
  H86      1.0000 0.67908  0.46669  0.30988  Biso   1.000  H
  H87      1.0000 0.62180  0.49998  0.30008  Biso   1.000  H
  H88      1.0000 0.73148  0.53331  0.44827  Biso   1.000  H
  H89      1.0000 0.73148  0.46669  0.44827  Biso   1.000  H
  H90      1.0000 0.70889  0.49998  0.53378  Biso   1.000  H
  N12      1.0000 0.42495  0.57530  0.41498  Biso   1.000  N
  C87      1.0000 0.41591  0.62902  0.53857  Biso   1.000  C
  H91      1.0000 0.46669  0.73288  0.43923  Biso   1.000  H
  H92      1.0000 0.53331  0.73288  0.43923  Biso   1.000  H
  H93      1.0000 0.49998  0.71050  0.52480  Biso   1.000  H
  H94      1.0000 0.46669  0.67611  0.29851  Biso   1.000  H
  H95      1.0000 0.53331  0.67611  0.29851  Biso   1.000  H
  H96      1.0000 0.49998  0.61840  0.29659  Biso   1.000  H
  C88      1.0000 0.55301  0.37710  0.46019  Biso   1.000  C
  H97      1.0000 0.56248  0.43799  0.36243  Biso   1.000  H
  C89      1.0000 0.58409  0.37098  0.53857  Biso   1.000  C
  C90      1.0000 0.65900  0.41191  0.62887  Biso   1.000  C
  C91      1.0000 0.38130  0.55250  0.46410  Biso   1.000  C
  H98      1.0000 0.43752  0.56201  0.36243  Biso   1.000  H
  C92      1.0000 0.37472  0.58541  0.54179  Biso   1.000  C
  C93      1.0000 0.41438  0.66371  0.62270  Biso   1.000  C
  C94      1.0000 0.49998  0.34631  0.42402  Biso   1.000  C
  C95      1.0000 0.58558  0.33629  0.62270  Biso   1.000  C
  N13      1.0000 0.62622  0.36988  0.68067  Biso   1.000  N
  H99      1.0000 0.65989  0.44911  0.66052  Biso   1.000  H
  H100     1.0000 0.69831  0.39879  0.61770  Biso   1.000  H
  C96      1.0000 0.34818  0.49998  0.43019  Biso   1.000  C
  C97      1.0000 0.34100  0.58809  0.62887  Biso   1.000  C
  N14      1.0000 0.37378  0.63008  0.68067  Biso   1.000  N
  H101     1.0000 0.45238  0.66638  0.65148  Biso   1.000  H
  H102     1.0000 0.39990  0.70239  0.61037  Biso   1.000  H
  C98      1.0000 0.44699  0.37710  0.46019  Biso   1.000  C
  C99      1.0000 0.49998  0.28708  0.45917  Biso   1.000  C
  C100     1.0000 0.49998  0.34338  0.31981  Biso   1.000  C
  H103     1.0000 0.54758  0.33362  0.65148  Biso   1.000  H
  H104     1.0000 0.60010  0.29761  0.61037  Biso   1.000  H
  S6       1.0000 0.64842  0.34449  0.77658  Biso   1.000  S
  C101     1.0000 0.38130  0.44750  0.46410  Biso   1.000  C
  C102     1.0000 0.34139  0.49998  0.32838  Biso   1.000  C
  C103     1.0000 0.28848  0.49998  0.46821  Biso   1.000  C
  H105     1.0000 0.34011  0.55089  0.66052  Biso   1.000  H
  H106     1.0000 0.30169  0.60121  0.61770  Biso   1.000  H
  S7       1.0000 0.35158  0.65551  0.77658  Biso   1.000  S
  N15      1.0000 0.42495  0.42470  0.41498  Biso   1.000  N
  C104     1.0000 0.41591  0.37098  0.53857  Biso   1.000  C
  H107     1.0000 0.53331  0.26708  0.43923  Biso   1.000  H
  H108     1.0000 0.46669  0.26708  0.43923  Biso   1.000  H
  H109     1.0000 0.49998  0.28950  0.52480  Biso   1.000  H
  H110     1.0000 0.53331  0.32389  0.29851  Biso   1.000  H
  H111     1.0000 0.46669  0.32389  0.29851  Biso   1.000  H
  H112     1.0000 0.49998  0.38160  0.29659  Biso   1.000  H
  O11      1.0000 0.67288  0.39128  0.82379  Biso   1.000  O
  O12      1.0000 0.60286  0.31349  0.81790  Biso   1.000  O
  C105     1.0000 0.70180  0.29459  0.75370  Biso   1.000  C
  C106     1.0000 0.37472  0.41459  0.54179  Biso   1.000  C
  H113     1.0000 0.32088  0.53331  0.30988  Biso   1.000  H
  H114     1.0000 0.32088  0.46669  0.30988  Biso   1.000  H
  H115     1.0000 0.37820  0.49998  0.30008  Biso   1.000  H
  H116     1.0000 0.26848  0.53331  0.44827  Biso   1.000  H
  H117     1.0000 0.26848  0.46669  0.44827  Biso   1.000  H
  H118     1.0000 0.29111  0.49998  0.53378  Biso   1.000  H
  O13      1.0000 0.32708  0.60868  0.82379  Biso   1.000  O
  O14      1.0000 0.39714  0.68651  0.81790  Biso   1.000  O
  C107     1.0000 0.29820  0.70541  0.75370  Biso   1.000  C
  H119     1.0000 0.43752  0.43799  0.36243  Biso   1.000  H
  C108     1.0000 0.41438  0.33629  0.62270  Biso   1.000  C
  C109     1.0000 0.68800  0.23948  0.73801  Biso   1.000  C
  C110     1.0000 0.75942  0.31039  0.74979  Biso   1.000  C
  C111     1.0000 0.34100  0.41191  0.62887  Biso   1.000  C
  C112     1.0000 0.31200  0.76048  0.73801  Biso   1.000  C
  C113     1.0000 0.24058  0.68961  0.74979  Biso   1.000  C
  N16      1.0000 0.37378  0.36988  0.68067  Biso   1.000  N
  H120     1.0000 0.45238  0.33362  0.65148  Biso   1.000  H
  H121     1.0000 0.39990  0.29761  0.61037  Biso   1.000  H
  H122     1.0000 0.64931  0.22810  0.73623  Biso   1.000  H
  C114     1.0000 0.73190  0.19901  0.72438  Biso   1.000  C
  C115     1.0000 0.80260  0.27111  0.73589  Biso   1.000  C
  H123     1.0000 0.76910  0.34928  0.75699  Biso   1.000  H
  H124     1.0000 0.34011  0.44911  0.66052  Biso   1.000  H
  H125     1.0000 0.30169  0.39879  0.61770  Biso   1.000  H
  H126     1.0000 0.35069  0.77190  0.73623  Biso   1.000  H
  C116     1.0000 0.26810  0.80099  0.72438  Biso   1.000  C
  C117     1.0000 0.19740  0.72889  0.73589  Biso   1.000  C
  H127     1.0000 0.23090  0.65072  0.75699  Biso   1.000  H
  S8       1.0000 0.35158  0.34449  0.77658  Biso   1.000  S
  H128     1.0000 0.72230  0.16059  0.71266  Biso   1.000  H
  C118     1.0000 0.78829  0.21460  0.72787  Biso   1.000  C
  H129     1.0000 0.84111  0.28292  0.73212  Biso   1.000  H
  H130     1.0000 0.27770  0.83941  0.71266  Biso   1.000  H
  C119     1.0000 0.21171  0.78540  0.72787  Biso   1.000  C
  H131     1.0000 0.15889  0.71708  0.73212  Biso   1.000  H
  O15      1.0000 0.32708  0.39128  0.82379  Biso   1.000  O
  O16      1.0000 0.39714  0.31349  0.81790  Biso   1.000  O
  C120     1.0000 0.29820  0.29459  0.75370  Biso   1.000  C
  C121     1.0000 0.83589  0.17328  0.71896  Biso   1.000  C
  C122     1.0000 0.16411  0.82672  0.71896  Biso   1.000  C
  C123     1.0000 0.31200  0.23948  0.73801  Biso   1.000  C
  C124     1.0000 0.24058  0.31039  0.74979  Biso   1.000  C
  H132     1.0000 0.83011  0.14980  0.66443  Biso   1.000  H
  H133     1.0000 0.87190  0.19392  0.71341  Biso   1.000  H
  H134     1.0000 0.83708  0.14891  0.77350  Biso   1.000  H
  H135     1.0000 0.16989  0.85020  0.66443  Biso   1.000  H
  H136     1.0000 0.12810  0.80608  0.71341  Biso   1.000  H
  H137     1.0000 0.16288  0.85109  0.77350  Biso   1.000  H
  H138     1.0000 0.35069  0.22810  0.73623  Biso   1.000  H
  C125     1.0000 0.26810  0.19901  0.72438  Biso   1.000  C
  C126     1.0000 0.19740  0.27111  0.73589  Biso   1.000  C
  H139     1.0000 0.23090  0.34928  0.75699  Biso   1.000  H
  H140     1.0000 0.27770  0.16059  0.71266  Biso   1.000  H
  C127     1.0000 0.21171  0.21460  0.72787  Biso   1.000  C
  H141     1.0000 0.15889  0.28292  0.73212  Biso   1.000  H
  C128     1.0000 0.16411  0.17328  0.71896  Biso   1.000  C
  H142     1.0000 0.16989  0.14980  0.66443  Biso   1.000  H
  H143     1.0000 0.12810  0.19392  0.71341  Biso   1.000  H
  H144     1.0000 0.16288  0.14891  0.77350  Biso   1.000  H
  C129     1.0000 0.79818  0.79462  0.25370  Biso   1.000  C
  C130     1.0000 0.81198  0.73950  0.23801  Biso   1.000  C
  C131     1.0000 0.74061  0.81041  0.24979  Biso   1.000  C
  S9       1.0000 0.85156  0.84447  0.27658  Biso   1.000  S
  C132     1.0000 0.76808  0.69899  0.22438  Biso   1.000  C
  H145     1.0000 0.85071  0.72808  0.23623  Biso   1.000  H
  C133     1.0000 0.69738  0.77109  0.23589  Biso   1.000  C
  H146     1.0000 0.73088  0.84931  0.25699  Biso   1.000  H
  O17      1.0000 0.82710  0.89130  0.32379  Biso   1.000  O
  O18      1.0000 0.89712  0.81347  0.31790  Biso   1.000  O
  N17      1.0000 0.87381  0.86990  0.18067  Biso   1.000  N
  C134     1.0000 0.71169  0.71458  0.22787  Biso   1.000  C
  H147     1.0000 0.77772  0.66061  0.21273  Biso   1.000  H
  H148     1.0000 0.65891  0.78290  0.23212  Biso   1.000  H
  C135     1.0000 0.91440  0.83631  0.12270  Biso   1.000  C
  C136     1.0000 0.84098  0.91189  0.12887  Biso   1.000  C
  C137     1.0000 0.66409  0.67330  0.21903  Biso   1.000  C
  C138     1.0000 0.91588  0.87100  0.03857  Biso   1.000  C
  H149     1.0000 0.95240  0.83360  0.15148  Biso   1.000  H
  H150     1.0000 0.89988  0.79759  0.11037  Biso   1.000  H
  H151     1.0000 0.84009  0.94909  0.16052  Biso   1.000  H
  H152     1.0000 0.80171  0.89882  0.11770  Biso   1.000  H
  C139     1.0000 0.87470  0.91461  0.04179  Biso   1.000  C
  H153     1.0000 0.66991  0.64978  0.16443  Biso   1.000  H
  H154     1.0000 0.62808  0.69390  0.21341  Biso   1.000  H
  H155     1.0000 0.66290  0.64889  0.27350  Biso   1.000  H
  C140     1.0000 0.94701  0.87708  0.96019  Biso   1.000  C
  C141     1.0000 0.88128  0.94748  0.96410  Biso   1.000  C
  N18      1.0000 0.92497  0.92472  0.91498  Biso   1.000  N
  C142     1.0000 0.00000  0.84629  0.92402  Biso   1.000  C
  C143     1.0000 0.84820  0.00000  0.93019  Biso   1.000  C
  H156     1.0000 0.93750  0.93801  0.86243  Biso   1.000  H
  C144     1.0000 0.05299  0.87708  0.96019  Biso   1.000  C
  C145     1.0000 0.00000  0.78710  0.95917  Biso   1.000  C
  C146     1.0000 0.00000  0.84340  0.81981  Biso   1.000  C
  C147     1.0000 0.88128  0.05248  0.96410  Biso   1.000  C
  C148     1.0000 0.84141  0.00000  0.82838  Biso   1.000  C
  C149     1.0000 0.78850  0.00000  0.96821  Biso   1.000  C
  N19      1.0000 0.07503  0.92472  0.91498  Biso   1.000  N
  C150     1.0000 0.08412  0.87100  0.03857  Biso   1.000  C
  H157     1.0000 0.96671  0.76710  0.93916  Biso   1.000  H
  H158     1.0000 0.03329  0.76710  0.93916  Biso   1.000  H
  H159     1.0000 0.00000  0.78948  0.02480  Biso   1.000  H
  H160     1.0000 0.96671  0.82391  0.79851  Biso   1.000  H
  H161     1.0000 0.03329  0.82391  0.79851  Biso   1.000  H
  H162     1.0000 0.00000  0.88158  0.79659  Biso   1.000  H
  N20      1.0000 0.92497  0.07528  0.91498  Biso   1.000  N
  C151     1.0000 0.87470  0.08539  0.04179  Biso   1.000  C
  H163     1.0000 0.82090  0.96671  0.80988  Biso   1.000  H
  H164     1.0000 0.82090  0.03329  0.80988  Biso   1.000  H
  H165     1.0000 0.87818  0.00000  0.80008  Biso   1.000  H
  H166     1.0000 0.76850  0.96671  0.94827  Biso   1.000  H
  H167     1.0000 0.76850  0.03329  0.94827  Biso   1.000  H
  H168     1.0000 0.79109  0.00000  0.03378  Biso   1.000  H
  H169     1.0000 0.06250  0.93801  0.86243  Biso   1.000  H
  C152     1.0000 0.11868  0.94748  0.96410  Biso   1.000  C
  C153     1.0000 0.08560  0.83631  0.12270  Biso   1.000  C
  C154     1.0000 0.12530  0.91461  0.04179  Biso   1.000  C
  H170     1.0000 0.93750  0.06199  0.86243  Biso   1.000  H
  C155     1.0000 0.94701  0.12288  0.96019  Biso   1.000  C
  C156     1.0000 0.91588  0.12900  0.03857  Biso   1.000  C
  C157     1.0000 0.84098  0.08811  0.12887  Biso   1.000  C
  C158     1.0000 0.15180  0.00000  0.93019  Biso   1.000  C
  N21      1.0000 0.12619  0.86990  0.18067  Biso   1.000  N
  H171     1.0000 0.04760  0.83360  0.15148  Biso   1.000  H
  H172     1.0000 0.10008  0.79759  0.11037  Biso   1.000  H
  C159     1.0000 0.15902  0.91189  0.12887  Biso   1.000  C
  C160     1.0000 0.00000  0.15371  0.92402  Biso   1.000  C
  C161     1.0000 0.91440  0.16369  0.12270  Biso   1.000  C
  N22      1.0000 0.87381  0.13010  0.18067  Biso   1.000  N
  H173     1.0000 0.84009  0.05091  0.16052  Biso   1.000  H
  H174     1.0000 0.80171  0.10118  0.11770  Biso   1.000  H
  C162     1.0000 0.11868  0.05248  0.96410  Biso   1.000  C
  C163     1.0000 0.15859  0.00000  0.82838  Biso   1.000  C
  C164     1.0000 0.21150  0.00000  0.96821  Biso   1.000  C
  S10      1.0000 0.14840  0.84447  0.27658  Biso   1.000  S
  H175     1.0000 0.15991  0.94909  0.16052  Biso   1.000  H
  H176     1.0000 0.19829  0.89882  0.11770  Biso   1.000  H
  C165     1.0000 0.05299  0.12288  0.96019  Biso   1.000  C
  C166     1.0000 0.00000  0.21290  0.95917  Biso   1.000  C
  C167     1.0000 0.00000  0.15660  0.81981  Biso   1.000  C
  H177     1.0000 0.95240  0.16640  0.15148  Biso   1.000  H
  H178     1.0000 0.89988  0.20241  0.11037  Biso   1.000  H
  S11      1.0000 0.85156  0.15553  0.27658  Biso   1.000  S
  N23      1.0000 0.07503  0.07528  0.91498  Biso   1.000  N
  C168     1.0000 0.12530  0.08539  0.04179  Biso   1.000  C
  H179     1.0000 0.17910  0.96671  0.80988  Biso   1.000  H
  H180     1.0000 0.17910  0.03329  0.80988  Biso   1.000  H
  H181     1.0000 0.12178  0.00000  0.80008  Biso   1.000  H
  H182     1.0000 0.23150  0.96671  0.94827  Biso   1.000  H
  H183     1.0000 0.23150  0.03329  0.94827  Biso   1.000  H
  H184     1.0000 0.20891  0.00000  0.03378  Biso   1.000  H
  O19      1.0000 0.17290  0.89130  0.32379  Biso   1.000  O
  O20      1.0000 0.10288  0.81347  0.31790  Biso   1.000  O
  C169     1.0000 0.20182  0.79462  0.25370  Biso   1.000  C
  C170     1.0000 0.08412  0.12900  0.03857  Biso   1.000  C
  H185     1.0000 0.96671  0.23290  0.93916  Biso   1.000  H
  H186     1.0000 0.03329  0.23290  0.93916  Biso   1.000  H
  H187     1.0000 0.00000  0.21048  0.02480  Biso   1.000  H
  H188     1.0000 0.96671  0.17609  0.79851  Biso   1.000  H
  H189     1.0000 0.03329  0.17609  0.79851  Biso   1.000  H
  H190     1.0000 0.00000  0.11838  0.79659  Biso   1.000  H
  O21      1.0000 0.82710  0.10870  0.32379  Biso   1.000  O
  O22      1.0000 0.89712  0.18649  0.31790  Biso   1.000  O
  C171     1.0000 0.79818  0.20538  0.25370  Biso   1.000  C
  H191     1.0000 0.06250  0.06199  0.86243  Biso   1.000  H
  C172     1.0000 0.15902  0.08811  0.12887  Biso   1.000  C
  C173     1.0000 0.18802  0.73950  0.23801  Biso   1.000  C
  C174     1.0000 0.25939  0.81041  0.24979  Biso   1.000  C
  C175     1.0000 0.08560  0.16369  0.12270  Biso   1.000  C
  C176     1.0000 0.81198  0.26050  0.23801  Biso   1.000  C
  C177     1.0000 0.74061  0.18959  0.24979  Biso   1.000  C
  N24      1.0000 0.12619  0.13010  0.18067  Biso   1.000  N
  H192     1.0000 0.15991  0.05091  0.16052  Biso   1.000  H
  H193     1.0000 0.19829  0.10118  0.11770  Biso   1.000  H
  H194     1.0000 0.14929  0.72808  0.23623  Biso   1.000  H
  C178     1.0000 0.23188  0.69899  0.22438  Biso   1.000  C
  C179     1.0000 0.30262  0.77109  0.23589  Biso   1.000  C
  H195     1.0000 0.26912  0.84931  0.25699  Biso   1.000  H
  H196     1.0000 0.04760  0.16640  0.15148  Biso   1.000  H
  H197     1.0000 0.10008  0.20241  0.11037  Biso   1.000  H
  H198     1.0000 0.85071  0.27188  0.23623  Biso   1.000  H
  C180     1.0000 0.76808  0.30101  0.22438  Biso   1.000  C
  C181     1.0000 0.69738  0.22891  0.23589  Biso   1.000  C
  H199     1.0000 0.73088  0.15069  0.25699  Biso   1.000  H
  S12      1.0000 0.14840  0.15553  0.27658  Biso   1.000  S
  H200     1.0000 0.22228  0.66061  0.21273  Biso   1.000  H
  C182     1.0000 0.28831  0.71458  0.22787  Biso   1.000  C
  H201     1.0000 0.34109  0.78290  0.23212  Biso   1.000  H
  H202     1.0000 0.77772  0.33939  0.21273  Biso   1.000  H
  C183     1.0000 0.71169  0.28538  0.22787  Biso   1.000  C
  H203     1.0000 0.65891  0.21710  0.23212  Biso   1.000  H
  O23      1.0000 0.17290  0.10870  0.32379  Biso   1.000  O
  O24      1.0000 0.10288  0.18649  0.31790  Biso   1.000  O
  C184     1.0000 0.20182  0.20538  0.25370  Biso   1.000  C
  C185     1.0000 0.33591  0.67330  0.21903  Biso   1.000  C
  C186     1.0000 0.66409  0.32670  0.21903  Biso   1.000  C
  C187     1.0000 0.18802  0.26050  0.23801  Biso   1.000  C
  C188     1.0000 0.25939  0.18959  0.24979  Biso   1.000  C
  H204     1.0000 0.33009  0.64978  0.16443  Biso   1.000  H
  H205     1.0000 0.37192  0.69390  0.21341  Biso   1.000  H
  H206     1.0000 0.33710  0.64889  0.27350  Biso   1.000  H
  H207     1.0000 0.66991  0.35022  0.16443  Biso   1.000  H
  H208     1.0000 0.62808  0.30610  0.21341  Biso   1.000  H
  H209     1.0000 0.66290  0.35111  0.27350  Biso   1.000  H
  H210     1.0000 0.14929  0.27188  0.23623  Biso   1.000  H
  C189     1.0000 0.23188  0.30101  0.22438  Biso   1.000  C
  C190     1.0000 0.30262  0.22891  0.23589  Biso   1.000  C
  H211     1.0000 0.26912  0.15069  0.25699  Biso   1.000  H
  H212     1.0000 0.22228  0.33939  0.21273  Biso   1.000  H
  C191     1.0000 0.28831  0.28538  0.22787  Biso   1.000  C
  H213     1.0000 0.34109  0.21710  0.23212  Biso   1.000  H
  C192     1.0000 0.33591  0.32670  0.21903  Biso   1.000  C
  H214     1.0000 0.33009  0.35022  0.16443  Biso   1.000  H
  H215     1.0000 0.37192  0.30610  0.21341  Biso   1.000  H
  H216     1.0000 0.33710  0.35111  0.27350  Biso   1.000  H
  C193     1.0000 0.62290  0.94701  0.71019  Biso   1.000  C
  N25      1.0000 0.57530  0.92497  0.66498  Biso   1.000  N
  C194     1.0000 0.62902  0.91588  0.78857  Biso   1.000  C
  C195     1.0000 0.65369  0.00000  0.67402  Biso   1.000  C
  C196     1.0000 0.55250  0.88128  0.71410  Biso   1.000  C
  H217     1.0000 0.56201  0.93750  0.61243  Biso   1.000  H
  C197     1.0000 0.58541  0.87470  0.79179  Biso   1.000  C
  C198     1.0000 0.66371  0.91440  0.87270  Biso   1.000  C
  C199     1.0000 0.62290  0.05299  0.71019  Biso   1.000  C
  C200     1.0000 0.71288  0.00000  0.70917  Biso   1.000  C
  C201     1.0000 0.65662  0.00000  0.56981  Biso   1.000  C
  C202     1.0000 0.49998  0.84820  0.68019  Biso   1.000  C
  C203     1.0000 0.58809  0.84098  0.87887  Biso   1.000  C
  N26      1.0000 0.63008  0.87381  0.93067  Biso   1.000  N
  H218     1.0000 0.66638  0.95240  0.90148  Biso   1.000  H
  H219     1.0000 0.70239  0.89988  0.86037  Biso   1.000  H
  N27      1.0000 0.57530  0.07503  0.66498  Biso   1.000  N
  C204     1.0000 0.62902  0.08412  0.78857  Biso   1.000  C
  H220     1.0000 0.73288  0.96671  0.68916  Biso   1.000  H
  H221     1.0000 0.73288  0.03329  0.68916  Biso   1.000  H
  H222     1.0000 0.71050  0.00000  0.77480  Biso   1.000  H
  H223     1.0000 0.67611  0.96671  0.54851  Biso   1.000  H
  H224     1.0000 0.67611  0.03329  0.54851  Biso   1.000  H
  H225     1.0000 0.61840  0.00000  0.54659  Biso   1.000  H
  C205     1.0000 0.44750  0.88128  0.71410  Biso   1.000  C
  C206     1.0000 0.49998  0.84141  0.57838  Biso   1.000  C
  C207     1.0000 0.49998  0.78850  0.71821  Biso   1.000  C
  H226     1.0000 0.55089  0.84009  0.91052  Biso   1.000  H
  H227     1.0000 0.60121  0.80171  0.86770  Biso   1.000  H
  S13      1.0000 0.65551  0.85156  0.02658  Biso   1.000  S
  C208     1.0000 0.55250  0.11868  0.71410  Biso   1.000  C
  H228     1.0000 0.56201  0.06250  0.61243  Biso   1.000  H
  C209     1.0000 0.58541  0.12530  0.79179  Biso   1.000  C
  C210     1.0000 0.66371  0.08560  0.87270  Biso   1.000  C
  C211     1.0000 0.41459  0.87470  0.79179  Biso   1.000  C
  N28      1.0000 0.42470  0.92497  0.66498  Biso   1.000  N
  H229     1.0000 0.46669  0.82090  0.55988  Biso   1.000  H
  H230     1.0000 0.53331  0.82090  0.55988  Biso   1.000  H
  H231     1.0000 0.49998  0.87818  0.55008  Biso   1.000  H
  H232     1.0000 0.46669  0.76850  0.69827  Biso   1.000  H
  H233     1.0000 0.53331  0.76850  0.69827  Biso   1.000  H
  H234     1.0000 0.49998  0.79109  0.78378  Biso   1.000  H
  O25      1.0000 0.60868  0.82710  0.07379  Biso   1.000  O
  O26      1.0000 0.68651  0.89712  0.06790  Biso   1.000  O
  C212     1.0000 0.70541  0.79818  0.00370  Biso   1.000  C
  C213     1.0000 0.49998  0.15180  0.68019  Biso   1.000  C
  C214     1.0000 0.58809  0.15902  0.87887  Biso   1.000  C
  N29      1.0000 0.63008  0.12619  0.93067  Biso   1.000  N
  H235     1.0000 0.66638  0.04760  0.90148  Biso   1.000  H
  H236     1.0000 0.70239  0.10008  0.86037  Biso   1.000  H
  C215     1.0000 0.41191  0.84098  0.87887  Biso   1.000  C
  C216     1.0000 0.37098  0.91588  0.78857  Biso   1.000  C
  C217     1.0000 0.37710  0.94701  0.71019  Biso   1.000  C
  H237     1.0000 0.43799  0.93750  0.61243  Biso   1.000  H
  C218     1.0000 0.76048  0.81198  0.98801  Biso   1.000  C
  C219     1.0000 0.68961  0.74061  0.99979  Biso   1.000  C
  C220     1.0000 0.44750  0.11868  0.71410  Biso   1.000  C
  C221     1.0000 0.49998  0.15859  0.57838  Biso   1.000  C
  C222     1.0000 0.49998  0.21150  0.71821  Biso   1.000  C
  H238     1.0000 0.55089  0.15991  0.91052  Biso   1.000  H
  H239     1.0000 0.60121  0.19829  0.86770  Biso   1.000  H
  S14      1.0000 0.65551  0.14840  0.02658  Biso   1.000  S
  N30      1.0000 0.36988  0.87381  0.93067  Biso   1.000  N
  H240     1.0000 0.44911  0.84009  0.91052  Biso   1.000  H
  H241     1.0000 0.39879  0.80171  0.86770  Biso   1.000  H
  C223     1.0000 0.33629  0.91440  0.87270  Biso   1.000  C
  C224     1.0000 0.34631  0.00000  0.67402  Biso   1.000  C
  H242     1.0000 0.77190  0.85071  0.98616  Biso   1.000  H
  C225     1.0000 0.80099  0.76808  0.97438  Biso   1.000  C
  C226     1.0000 0.72889  0.69738  0.98589  Biso   1.000  C
  H243     1.0000 0.65072  0.73088  0.00699  Biso   1.000  H
  N31      1.0000 0.42470  0.07503  0.66498  Biso   1.000  N
  C227     1.0000 0.41459  0.12530  0.79179  Biso   1.000  C
  H244     1.0000 0.46669  0.17910  0.55988  Biso   1.000  H
  H245     1.0000 0.53331  0.17910  0.55988  Biso   1.000  H
  H246     1.0000 0.49998  0.12178  0.55008  Biso   1.000  H
  H247     1.0000 0.46669  0.23150  0.69827  Biso   1.000  H
  H248     1.0000 0.53331  0.23150  0.69827  Biso   1.000  H
  H249     1.0000 0.49998  0.20891  0.78378  Biso   1.000  H
  O27      1.0000 0.60868  0.17290  0.07379  Biso   1.000  O
  O28      1.0000 0.68651  0.10288  0.06790  Biso   1.000  O
  C228     1.0000 0.70541  0.20182  0.00370  Biso   1.000  C
  S15      1.0000 0.34449  0.85156  0.02658  Biso   1.000  S
  H250     1.0000 0.33362  0.95240  0.90148  Biso   1.000  H
  H251     1.0000 0.29761  0.89988  0.86037  Biso   1.000  H
  C229     1.0000 0.37710  0.05299  0.71019  Biso   1.000  C
  C230     1.0000 0.28708  0.00000  0.70917  Biso   1.000  C
  C231     1.0000 0.34338  0.00000  0.56981  Biso   1.000  C
  H252     1.0000 0.83941  0.77772  0.96266  Biso   1.000  H
  C232     1.0000 0.78540  0.71169  0.97787  Biso   1.000  C
  H253     1.0000 0.71708  0.65891  0.98212  Biso   1.000  H
  H254     1.0000 0.43799  0.06250  0.61243  Biso   1.000  H
  C233     1.0000 0.37098  0.08412  0.78857  Biso   1.000  C
  C234     1.0000 0.41191  0.15902  0.87887  Biso   1.000  C
  C235     1.0000 0.76048  0.18802  0.98801  Biso   1.000  C
  C236     1.0000 0.68961  0.25939  0.99979  Biso   1.000  C
  C237     1.0000 0.29459  0.79818  0.00370  Biso   1.000  C
  O29      1.0000 0.39128  0.82710  0.07379  Biso   1.000  O
  O30      1.0000 0.31349  0.89712  0.06790  Biso   1.000  O
  H255     1.0000 0.26708  0.96671  0.68916  Biso   1.000  H
  H256     1.0000 0.26708  0.03329  0.68916  Biso   1.000  H
  H257     1.0000 0.28950  0.00000  0.77480  Biso   1.000  H
  H258     1.0000 0.32389  0.96671  0.54851  Biso   1.000  H
  H259     1.0000 0.32389  0.03329  0.54851  Biso   1.000  H
  H260     1.0000 0.38160  0.00000  0.54659  Biso   1.000  H
  C238     1.0000 0.82672  0.66409  0.96896  Biso   1.000  C
  C239     1.0000 0.33629  0.08560  0.87270  Biso   1.000  C
  N32      1.0000 0.36988  0.12619  0.93067  Biso   1.000  N
  H261     1.0000 0.44911  0.15991  0.91052  Biso   1.000  H
  H262     1.0000 0.39879  0.19829  0.86770  Biso   1.000  H
  H263     1.0000 0.77190  0.14929  0.98616  Biso   1.000  H
  C240     1.0000 0.80099  0.23188  0.97438  Biso   1.000  C
  C241     1.0000 0.72889  0.30262  0.98589  Biso   1.000  C
  H264     1.0000 0.65072  0.26912  0.00699  Biso   1.000  H
  C242     1.0000 0.23948  0.81198  0.98801  Biso   1.000  C
  C243     1.0000 0.31039  0.74061  0.99979  Biso   1.000  C
  H265     1.0000 0.85020  0.66991  0.91436  Biso   1.000  H
  H266     1.0000 0.80608  0.62808  0.96341  Biso   1.000  H
  H267     1.0000 0.85109  0.66290  0.02350  Biso   1.000  H
  H268     1.0000 0.33362  0.04760  0.90148  Biso   1.000  H
  H269     1.0000 0.29761  0.10008  0.86037  Biso   1.000  H
  S16      1.0000 0.34449  0.14840  0.02658  Biso   1.000  S
  H270     1.0000 0.83941  0.22228  0.96266  Biso   1.000  H
  C244     1.0000 0.78540  0.28831  0.97787  Biso   1.000  C
  H271     1.0000 0.71708  0.34109  0.98212  Biso   1.000  H
  C245     1.0000 0.19901  0.76808  0.97438  Biso   1.000  C
  H272     1.0000 0.22810  0.85071  0.98616  Biso   1.000  H
  C246     1.0000 0.27111  0.69738  0.98589  Biso   1.000  C
  H273     1.0000 0.34928  0.73088  0.00699  Biso   1.000  H
  O31      1.0000 0.39128  0.17290  0.07379  Biso   1.000  O
  O32      1.0000 0.31349  0.10288  0.06790  Biso   1.000  O
  C247     1.0000 0.29459  0.20182  0.00370  Biso   1.000  C
  C248     1.0000 0.82672  0.33591  0.96896  Biso   1.000  C
  C249     1.0000 0.21460  0.71169  0.97787  Biso   1.000  C
  H274     1.0000 0.16059  0.77772  0.96266  Biso   1.000  H
  H275     1.0000 0.28292  0.65891  0.98212  Biso   1.000  H
  C250     1.0000 0.23948  0.18802  0.98801  Biso   1.000  C
  C251     1.0000 0.31039  0.25939  0.99979  Biso   1.000  C
  H276     1.0000 0.85020  0.33009  0.91436  Biso   1.000  H
  H277     1.0000 0.80608  0.37192  0.96341  Biso   1.000  H
  H278     1.0000 0.85109  0.33710  0.02350  Biso   1.000  H
  C252     1.0000 0.17328  0.66409  0.96896  Biso   1.000  C
  H279     1.0000 0.22810  0.14929  0.98616  Biso   1.000  H
  C253     1.0000 0.19901  0.23188  0.97438  Biso   1.000  C
  C254     1.0000 0.27111  0.30262  0.98589  Biso   1.000  C
  H280     1.0000 0.34928  0.26912  0.00699  Biso   1.000  H
  H281     1.0000 0.14980  0.66991  0.91436  Biso   1.000  H
  H282     1.0000 0.19392  0.62808  0.96341  Biso   1.000  H
  H283     1.0000 0.14891  0.66290  0.02350  Biso   1.000  H
  H284     1.0000 0.16059  0.22228  0.96266  Biso   1.000  H
  C255     1.0000 0.21460  0.28831  0.97787  Biso   1.000  C
  H285     1.0000 0.28292  0.34109  0.98212  Biso   1.000  H
  C256     1.0000 0.17328  0.33591  0.96896  Biso   1.000  C
  H286     1.0000 0.14980  0.33009  0.91436  Biso   1.000  H
  H287     1.0000 0.19392  0.37192  0.96341  Biso   1.000  H
  H288     1.0000 0.14891  0.33710  0.02350  Biso   1.000  H
