data_image0
_cell_length_a       21.201
_cell_length_b       8.271
_cell_length_c       21.339
_cell_angle_alpha    90
_cell_angle_beta     95.01
_cell_angle_gamma    90

_symmetry_space_group_name_H-M    "P 1"
_symmetry_int_tables_number       1

loop_
  _symmetry_equiv_pos_as_xyz
  'x, y, z'

loop_
  _atom_site_label
  _atom_site_occupancy
  _atom_site_fract_x
  _atom_site_fract_y
  _atom_site_fract_z
  _atom_site_thermal_displace_type
  _atom_site_B_iso_or_equiv
  _atom_site_type_symbol
  C1       1.0000 0.58997  0.78225  0.56874  Biso   1.000  C
  C2       1.0000 0.57011  0.72676  0.62453  Biso   1.000  C
  H1       1.0000 0.56599  0.85903  0.54550  Biso   1.000  H
  C3       1.0000 0.64491  0.72482  0.54724  Biso   1.000  C
  C4       1.0000 0.60684  0.61504  0.65981  Biso   1.000  C
  H2       1.0000 0.53233  0.76375  0.63850  Biso   1.000  H
  H3       1.0000 0.65779  0.76182  0.50919  Biso   1.000  H
  C5       1.0000 0.68108  0.61238  0.58205  Biso   1.000  C
  N1       1.0000 0.57882  0.55229  0.71288  Biso   1.000  N
  C6       1.0000 0.66367  0.55930  0.63987  Biso   1.000  C
  N2       1.0000 0.73160  0.54334  0.55143  Biso   1.000  N
  H4       1.0000 0.53822  0.54697  0.70770  Biso   1.000  H
  C7       1.0000 0.60310  0.50006  0.76909  Biso   1.000  C
  H5       1.0000 0.68932  0.48857  0.66452  Biso   1.000  H
  H6       1.0000 0.72769  0.55459  0.51121  Biso   1.000  H
  C8       1.0000 0.78417  0.46391  0.57316  Biso   1.000  C
  N3       1.0000 0.66572  0.50236  0.78561  Biso   1.000  N
  N4       1.0000 0.55894  0.44819  0.80663  Biso   1.000  N
  N5       1.0000 0.80348  0.46500  0.63460  Biso   1.000  N
  N6       1.0000 0.81453  0.38786  0.52800  Biso   1.000  N
  C9       1.0000 0.68044  0.44348  0.84248  Biso   1.000  C
  C10      1.0000 0.58279  0.39246  0.86059  Biso   1.000  C
  C11      1.0000 0.85670  0.38484  0.64768  Biso   1.000  C
  C12      1.0000 0.86529  0.31036  0.55058  Biso   1.000  C
  N7       1.0000 0.64254  0.38278  0.88298  Biso   1.000  N
  O1       1.0000 0.74073  0.44311  0.86680  Biso   1.000  O
  Cl1      1.0000 0.52903  0.31919  0.90956  Biso   1.000  Cl
  N8       1.0000 0.89042  0.30117  0.60896  Biso   1.000  N
  O2       1.0000 0.88432  0.38157  0.70639  Biso   1.000  O
  Cl2      1.0000 0.90595  0.20372  0.49695  Biso   1.000  Cl
  C13      1.0000 0.78955  0.50030  0.83241  Biso   1.000  C
  C14      1.0000 0.85938  0.47177  0.75428  Biso   1.000  C
  C15      1.0000 0.82409  0.62580  0.85890  Biso   1.000  C
  C16      1.0000 0.80555  0.41918  0.77991  Biso   1.000  C
  C17      1.0000 0.89614  0.59654  0.77916  Biso   1.000  C
  H7       1.0000 0.81159  0.67827  0.89432  Biso   1.000  H
  C18      1.0000 0.87800  0.67332  0.83204  Biso   1.000  C
  H8       1.0000 0.78138  0.33358  0.76260  Biso   1.000  H
  H9       1.0000 0.93231  0.62858  0.76081  Biso   1.000  H
  H10      1.0000 0.90229  0.75795  0.84972  Biso   1.000  H
  C19      1.0000 0.41006  0.21775  0.43124  Biso   1.000  C
  C20      1.0000 0.42992  0.27336  0.37549  Biso   1.000  C
  H11      1.0000 0.43399  0.14097  0.45452  Biso   1.000  H
  C21      1.0000 0.35506  0.27518  0.45273  Biso   1.000  C
  C22      1.0000 0.39314  0.38496  0.34016  Biso   1.000  C
  H12      1.0000 0.46770  0.23637  0.36152  Biso   1.000  H
  C23      1.0000 0.31889  0.38774  0.41792  Biso   1.000  C
  H13      1.0000 0.34218  0.23818  0.49079  Biso   1.000  H
  N9       1.0000 0.42116  0.44771  0.28715  Biso   1.000  N
  C24      1.0000 0.33631  0.44070  0.36016  Biso   1.000  C
  N10      1.0000 0.26838  0.45678  0.44860  Biso   1.000  N
  C25      1.0000 0.39693  0.50006  0.23093  Biso   1.000  C
  H14      1.0000 0.46181  0.45303  0.29232  Biso   1.000  H
  H15      1.0000 0.31070  0.51155  0.33551  Biso   1.000  H
  H16      1.0000 0.27229  0.44541  0.48882  Biso   1.000  H
  C26      1.0000 0.21581  0.53609  0.42681  Biso   1.000  C
  N11      1.0000 0.33430  0.49776  0.21442  Biso   1.000  N
  N12      1.0000 0.44108  0.55181  0.19339  Biso   1.000  N
  N13      1.0000 0.19655  0.53500  0.36542  Biso   1.000  N
  N14      1.0000 0.18545  0.61226  0.47202  Biso   1.000  N
  C27      1.0000 0.31954  0.55652  0.15754  Biso   1.000  C
  C28      1.0000 0.41719  0.60767  0.13943  Biso   1.000  C
  C29      1.0000 0.14327  0.61528  0.35230  Biso   1.000  C
  C30      1.0000 0.13473  0.68976  0.44939  Biso   1.000  C
  N15      1.0000 0.35744  0.61722  0.11704  Biso   1.000  N
  O3       1.0000 0.25925  0.55689  0.13322  Biso   1.000  O
  Cl3      1.0000 0.47100  0.68081  0.09046  Biso   1.000  Cl
  O4       1.0000 0.11571  0.61843  0.29364  Biso   1.000  O
  N16      1.0000 0.10961  0.69883  0.39106  Biso   1.000  N
  Cl4      1.0000 0.09407  0.79640  0.50302  Biso   1.000  Cl
  C31      1.0000 0.21048  0.49970  0.16761  Biso   1.000  C
  C32      1.0000 0.14065  0.52835  0.24575  Biso   1.000  C
  C33      1.0000 0.17593  0.37420  0.14108  Biso   1.000  C
  C34      1.0000 0.19448  0.58095  0.22011  Biso   1.000  C
  C35      1.0000 0.10389  0.40346  0.22082  Biso   1.000  C
  H17      1.0000 0.18839  0.32185  0.10570  Biso   1.000  H
  C36      1.0000 0.12202  0.32668  0.16799  Biso   1.000  C
  H18      1.0000 0.21860  0.66642  0.23742  Biso   1.000  H
  H19      1.0000 0.06772  0.37154  0.23921  Biso   1.000  H
  H20      1.0000 0.09769  0.24205  0.15030  Biso   1.000  H
  C37      1.0000 0.58280  0.60767  0.36058  Biso   1.000  C
  N17      1.0000 0.55891  0.55181  0.30662  Biso   1.000  N
  Cl5      1.0000 0.52904  0.68081  0.40955  Biso   1.000  Cl
  N18      1.0000 0.64255  0.61722  0.38297  Biso   1.000  N
  C38      1.0000 0.60306  0.50006  0.26908  Biso   1.000  C
  C39      1.0000 0.68045  0.55652  0.34247  Biso   1.000  C
  N19      1.0000 0.57883  0.44771  0.21287  Biso   1.000  N
  N20      1.0000 0.66573  0.49776  0.28559  Biso   1.000  N
  O5       1.0000 0.74074  0.55689  0.36679  Biso   1.000  O
  H21      1.0000 0.53818  0.45303  0.20769  Biso   1.000  H
  C40      1.0000 0.60685  0.38496  0.15980  Biso   1.000  C
  C41      1.0000 0.78951  0.49970  0.33240  Biso   1.000  C
  C42      1.0000 0.57007  0.27336  0.12452  Biso   1.000  C
  C43      1.0000 0.66368  0.44070  0.13986  Biso   1.000  C
  C44      1.0000 0.82406  0.37420  0.35889  Biso   1.000  C
  C45      1.0000 0.80551  0.58095  0.27990  Biso   1.000  C
  H22      1.0000 0.53229  0.23637  0.13849  Biso   1.000  H
  C46      1.0000 0.58993  0.21775  0.06878  Biso   1.000  C
  C47      1.0000 0.68109  0.38774  0.08204  Biso   1.000  C
  H23      1.0000 0.68929  0.51155  0.16451  Biso   1.000  H
  H24      1.0000 0.81160  0.32185  0.39431  Biso   1.000  H
  C48      1.0000 0.87797  0.32668  0.33202  Biso   1.000  C
  C49      1.0000 0.85934  0.52835  0.25426  Biso   1.000  C
  H25      1.0000 0.78139  0.66642  0.26259  Biso   1.000  H
  H26      1.0000 0.56600  0.14097  0.04549  Biso   1.000  H
  C50      1.0000 0.64492  0.27518  0.04723  Biso   1.000  C
  N21      1.0000 0.73161  0.45678  0.05142  Biso   1.000  N
  H27      1.0000 0.90230  0.24205  0.34971  Biso   1.000  H
  C51      1.0000 0.89610  0.40346  0.27915  Biso   1.000  C
  O6       1.0000 0.88428  0.61843  0.20637  Biso   1.000  O
  H28      1.0000 0.65781  0.23818  0.00922  Biso   1.000  H
  H29      1.0000 0.72770  0.44541  0.01120  Biso   1.000  H
  C52      1.0000 0.78418  0.53609  0.07320  Biso   1.000  C
  H30      1.0000 0.93232  0.37154  0.26080  Biso   1.000  H
  C53      1.0000 0.85671  0.61528  0.14767  Biso   1.000  C
  N22      1.0000 0.80344  0.53500  0.13459  Biso   1.000  N
  N23      1.0000 0.81454  0.61226  0.02799  Biso   1.000  N
  N24      1.0000 0.89043  0.69883  0.10895  Biso   1.000  N
  C54      1.0000 0.86530  0.68976  0.05062  Biso   1.000  C
  Cl6      1.0000 0.90597  0.79640  0.99699  Biso   1.000  Cl
  C55      1.0000 0.41723  0.39246  0.63945  Biso   1.000  C
  N25      1.0000 0.35748  0.38278  0.61705  Biso   1.000  N
  Cl7      1.0000 0.47099  0.31919  0.59047  Biso   1.000  Cl
  N26      1.0000 0.44107  0.44819  0.69340  Biso   1.000  N
  C56      1.0000 0.31958  0.44348  0.65756  Biso   1.000  C
  C57      1.0000 0.39692  0.50006  0.73094  Biso   1.000  C
  N27      1.0000 0.33429  0.50236  0.71438  Biso   1.000  N
  O7       1.0000 0.25928  0.44311  0.63324  Biso   1.000  O
  N28      1.0000 0.42120  0.55229  0.78711  Biso   1.000  N
  C58      1.0000 0.21046  0.50030  0.66758  Biso   1.000  C
  H31      1.0000 0.46179  0.54697  0.79229  Biso   1.000  H
  C59      1.0000 0.39317  0.61504  0.84018  Biso   1.000  C
  C60      1.0000 0.17592  0.62580  0.64109  Biso   1.000  C
  C61      1.0000 0.19447  0.41918  0.72012  Biso   1.000  C
  C62      1.0000 0.42995  0.72676  0.87546  Biso   1.000  C
  C63      1.0000 0.33635  0.55930  0.86017  Biso   1.000  C
  H32      1.0000 0.18842  0.67827  0.60572  Biso   1.000  H
  C64      1.0000 0.12201  0.67332  0.66800  Biso   1.000  C
  C65      1.0000 0.14064  0.47177  0.74571  Biso   1.000  C
  H33      1.0000 0.21863  0.33358  0.73739  Biso   1.000  H
  H34      1.0000 0.46769  0.76375  0.86149  Biso   1.000  H
  C66      1.0000 0.41005  0.78225  0.93125  Biso   1.000  C
  C67      1.0000 0.31893  0.61238  0.91794  Biso   1.000  C
  H35      1.0000 0.31069  0.48857  0.83552  Biso   1.000  H
  H36      1.0000 0.09773  0.75795  0.65031  Biso   1.000  H
  C68      1.0000 0.10388  0.59654  0.72083  Biso   1.000  C
  O8       1.0000 0.11570  0.38157  0.79365  Biso   1.000  O
  H37      1.0000 0.43402  0.85903  0.95449  Biso   1.000  H
  C69      1.0000 0.35510  0.72482  0.95275  Biso   1.000  C
  N29      1.0000 0.26842  0.54334  0.94861  Biso   1.000  N
  H38      1.0000 0.06771  0.62858  0.73922  Biso   1.000  H
  C70      1.0000 0.14331  0.38484  0.85231  Biso   1.000  C
  H39      1.0000 0.34222  0.76182  0.99080  Biso   1.000  H
  H40      1.0000 0.27233  0.55459  0.98883  Biso   1.000  H
  C71      1.0000 0.21585  0.46391  0.92683  Biso   1.000  C
  N30      1.0000 0.19654  0.46500  0.86544  Biso   1.000  N
  N31      1.0000 0.10960  0.30117  0.89107  Biso   1.000  N
  N32      1.0000 0.18548  0.38786  0.97203  Biso   1.000  N
  C72      1.0000 0.13472  0.31036  0.94941  Biso   1.000  C
  Cl8      1.0000 0.09401  0.20372  0.00304  Biso   1.000  Cl
  C73      1.0000 0.63471  0.18970  0.44939  Biso   1.000  C
  N33      1.0000 0.60958  0.19877  0.39106  Biso   1.000  N
  N34      1.0000 0.68547  0.11220  0.47202  Biso   1.000  N
  Cl9      1.0000 0.59405  0.29634  0.50302  Biso   1.000  Cl
  C74      1.0000 0.64330  0.11522  0.35230  Biso   1.000  C
  C75      1.0000 0.71583  0.03615  0.42681  Biso   1.000  C
  O9       1.0000 0.61569  0.11837  0.29364  Biso   1.000  O
  N35      1.0000 0.69652  0.03494  0.36542  Biso   1.000  N
  N36      1.0000 0.76841  0.95672  0.44860  Biso   1.000  N
  C76      1.0000 0.64063  0.02829  0.24575  Biso   1.000  C
  H41      1.0000 0.77232  0.94547  0.48882  Biso   1.000  H
  C77      1.0000 0.81891  0.88768  0.41792  Biso   1.000  C
  C78      1.0000 0.69446  0.08089  0.22011  Biso   1.000  C
  C79      1.0000 0.60386  0.90352  0.22082  Biso   1.000  C
  C80      1.0000 0.85509  0.77524  0.45273  Biso   1.000  C
  C81      1.0000 0.83634  0.94076  0.36016  Biso   1.000  C
  H42      1.0000 0.71862  0.16636  0.23742  Biso   1.000  H
  C82      1.0000 0.71045  0.99976  0.16761  Biso   1.000  C
  C83      1.0000 0.62200  0.82674  0.16799  Biso   1.000  C
  H43      1.0000 0.56770  0.87148  0.23921  Biso   1.000  H
  C84      1.0000 0.91003  0.71781  0.43124  Biso   1.000  C
  H44      1.0000 0.84221  0.73824  0.49079  Biso   1.000  H
  H45      1.0000 0.81068  0.01149  0.33551  Biso   1.000  H
  C85      1.0000 0.89316  0.88502  0.34016  Biso   1.000  C
  O10      1.0000 0.75927  0.05695  0.13322  Biso   1.000  O
  C86      1.0000 0.67591  0.87426  0.14108  Biso   1.000  C
  H46      1.0000 0.59771  0.74211  0.15030  Biso   1.000  H
  C87      1.0000 0.92990  0.77330  0.37549  Biso   1.000  C
  H47      1.0000 0.93401  0.64103  0.45452  Biso   1.000  H
  N37      1.0000 0.92119  0.94777  0.28715  Biso   1.000  N
  C88      1.0000 0.81956  0.05646  0.15754  Biso   1.000  C
  H48      1.0000 0.68841  0.82179  0.10570  Biso   1.000  H
  H49      1.0000 0.96768  0.73631  0.36152  Biso   1.000  H
  C89      1.0000 0.89691  0.00000  0.23093  Biso   1.000  C
  H50      1.0000 0.96178  0.95309  0.29232  Biso   1.000  H
  N38      1.0000 0.85746  0.11716  0.11704  Biso   1.000  N
  N39      1.0000 0.83428  0.99770  0.21442  Biso   1.000  N
  N40      1.0000 0.94106  0.05175  0.19339  Biso   1.000  N
  C90      1.0000 0.91721  0.10760  0.13943  Biso   1.000  C
  Cl10     1.0000 0.97097  0.18075  0.09046  Biso   1.000  Cl
  C91      1.0000 0.36531  0.81030  0.55058  Biso   1.000  C
  N41      1.0000 0.31456  0.88780  0.52800  Biso   1.000  N
  Cl11     1.0000 0.40598  0.70366  0.49695  Biso   1.000  Cl
  N42      1.0000 0.39044  0.80123  0.60896  Biso   1.000  N
  C92      1.0000 0.28419  0.96397  0.57316  Biso   1.000  C
  C93      1.0000 0.35673  0.88478  0.64768  Biso   1.000  C
  N43      1.0000 0.30346  0.96506  0.63460  Biso   1.000  N
  N44      1.0000 0.23162  0.04328  0.55143  Biso   1.000  N
  O11      1.0000 0.38429  0.88163  0.70639  Biso   1.000  O
  H51      1.0000 0.22771  0.05465  0.51121  Biso   1.000  H
  C94      1.0000 0.18111  0.11232  0.58205  Biso   1.000  C
  C95      1.0000 0.35935  0.97171  0.75428  Biso   1.000  C
  C96      1.0000 0.14494  0.22476  0.54724  Biso   1.000  C
  C97      1.0000 0.16369  0.05924  0.63987  Biso   1.000  C
  C98      1.0000 0.30552  0.91911  0.77991  Biso   1.000  C
  C99      1.0000 0.39611  0.09648  0.77916  Biso   1.000  C
  C100     1.0000 0.08994  0.28219  0.56874  Biso   1.000  C
  H52      1.0000 0.15782  0.26176  0.50919  Biso   1.000  H
  H53      1.0000 0.18930  0.98851  0.66452  Biso   1.000  H
  C101     1.0000 0.10686  0.11498  0.65981  Biso   1.000  C
  H54      1.0000 0.28141  0.83364  0.76260  Biso   1.000  H
  C102     1.0000 0.28953  0.00024  0.83241  Biso   1.000  C
  C103     1.0000 0.37798  0.17326  0.83204  Biso   1.000  C
  H55      1.0000 0.43233  0.12852  0.76081  Biso   1.000  H
  C104     1.0000 0.07008  0.22670  0.62453  Biso   1.000  C
  H56      1.0000 0.06601  0.35897  0.54550  Biso   1.000  H
  N45      1.0000 0.07884  0.05235  0.71288  Biso   1.000  N
  O12      1.0000 0.24076  0.94317  0.86680  Biso   1.000  O
  C105     1.0000 0.32407  0.12586  0.85890  Biso   1.000  C
  H57      1.0000 0.40232  0.25789  0.84972  Biso   1.000  H
  H58      1.0000 0.03230  0.26369  0.63850  Biso   1.000  H
  H59      1.0000 0.03820  0.04703  0.70770  Biso   1.000  H
  C106     1.0000 0.10307  0.00000  0.76909  Biso   1.000  C
  C107     1.0000 0.18046  0.94354  0.84248  Biso   1.000  C
  H60      1.0000 0.31162  0.17821  0.89432  Biso   1.000  H
  N46      1.0000 0.05897  0.94825  0.80663  Biso   1.000  N
  N47      1.0000 0.16575  0.00230  0.78561  Biso   1.000  N
  N48      1.0000 0.14256  0.88284  0.88298  Biso   1.000  N
  C108     1.0000 0.08281  0.89240  0.86059  Biso   1.000  C
  Cl12     1.0000 0.02905  0.81925  0.90956  Biso   1.000  Cl
  C109     1.0000 0.71049  0.00024  0.66758  Biso   1.000  C
  O13      1.0000 0.75926  0.94317  0.63324  Biso   1.000  O
  C110     1.0000 0.69449  0.91911  0.72012  Biso   1.000  C
  C111     1.0000 0.67594  0.12586  0.64109  Biso   1.000  C
  C112     1.0000 0.81955  0.94354  0.65756  Biso   1.000  C
  C113     1.0000 0.64066  0.97171  0.74571  Biso   1.000  C
  H61      1.0000 0.71860  0.83364  0.73739  Biso   1.000  H
  H62      1.0000 0.68840  0.17821  0.60572  Biso   1.000  H
  C114     1.0000 0.62204  0.17326  0.66800  Biso   1.000  C
  N49      1.0000 0.85745  0.88284  0.61705  Biso   1.000  N
  N50      1.0000 0.83427  0.00230  0.71438  Biso   1.000  N
  O14      1.0000 0.61573  0.88163  0.79365  Biso   1.000  O
  C115     1.0000 0.60390  0.09648  0.72083  Biso   1.000  C
  H63      1.0000 0.59770  0.25789  0.65031  Biso   1.000  H
  C116     1.0000 0.91720  0.89240  0.63945  Biso   1.000  C
  C117     1.0000 0.89695  0.00000  0.73094  Biso   1.000  C
  C118     1.0000 0.64329  0.88478  0.85231  Biso   1.000  C
  H64      1.0000 0.56769  0.12852  0.73922  Biso   1.000  H
  Cl13     1.0000 0.97096  0.81925  0.59047  Biso   1.000  Cl
  N51      1.0000 0.94110  0.94825  0.69340  Biso   1.000  N
  N52      1.0000 0.92117  0.05235  0.78711  Biso   1.000  N
  N53      1.0000 0.69656  0.96506  0.86544  Biso   1.000  N
  N54      1.0000 0.60957  0.80123  0.89107  Biso   1.000  N
  H65      1.0000 0.96182  0.04703  0.79229  Biso   1.000  H
  C119     1.0000 0.89315  0.11498  0.84018  Biso   1.000  C
  C120     1.0000 0.71582  0.96397  0.92683  Biso   1.000  C
  C121     1.0000 0.63470  0.81030  0.94941  Biso   1.000  C
  C122     1.0000 0.92993  0.22670  0.87546  Biso   1.000  C
  C123     1.0000 0.83633  0.05924  0.86017  Biso   1.000  C
  N55      1.0000 0.76840  0.04328  0.94861  Biso   1.000  N
  N56      1.0000 0.68546  0.88780  0.97203  Biso   1.000  N
  Cl14     1.0000 0.59404  0.70366  0.00304  Biso   1.000  Cl
  H66      1.0000 0.96771  0.26369  0.86149  Biso   1.000  H
  C124     1.0000 0.91007  0.28219  0.93125  Biso   1.000  C
  H67      1.0000 0.81072  0.98851  0.83552  Biso   1.000  H
  C125     1.0000 0.81890  0.11232  0.91794  Biso   1.000  C
  H68      1.0000 0.77231  0.05465  0.98883  Biso   1.000  H
  H69      1.0000 0.93400  0.35897  0.95449  Biso   1.000  H
  C126     1.0000 0.85508  0.22476  0.95275  Biso   1.000  C
  H70      1.0000 0.84220  0.26176  0.99080  Biso   1.000  H
  C127     1.0000 0.28954  0.99976  0.33240  Biso   1.000  C
  C128     1.0000 0.30553  0.08089  0.27990  Biso   1.000  C
  O15      1.0000 0.24072  0.05695  0.36679  Biso   1.000  O
  C129     1.0000 0.32408  0.87426  0.35889  Biso   1.000  C
  C130     1.0000 0.35936  0.02829  0.25426  Biso   1.000  C
  H71      1.0000 0.28142  0.16636  0.26259  Biso   1.000  H
  C131     1.0000 0.18047  0.05646  0.34247  Biso   1.000  C
  C132     1.0000 0.37799  0.82674  0.33202  Biso   1.000  C
  H72      1.0000 0.31163  0.82179  0.39431  Biso   1.000  H
  O16      1.0000 0.38430  0.11837  0.20637  Biso   1.000  O
  C133     1.0000 0.39612  0.90352  0.27915  Biso   1.000  C
  N57      1.0000 0.14253  0.11716  0.38297  Biso   1.000  N
  N58      1.0000 0.16571  0.99770  0.28559  Biso   1.000  N
  H73      1.0000 0.40233  0.74211  0.34971  Biso   1.000  H
  C134     1.0000 0.35669  0.11522  0.14767  Biso   1.000  C
  H74      1.0000 0.43229  0.87148  0.26080  Biso   1.000  H
  C135     1.0000 0.08278  0.10760  0.36058  Biso   1.000  C
  C136     1.0000 0.10308  0.00000  0.26908  Biso   1.000  C
  N59      1.0000 0.30347  0.03494  0.13459  Biso   1.000  N
  N60      1.0000 0.39041  0.19877  0.10895  Biso   1.000  N
  Cl15     1.0000 0.02902  0.18075  0.40955  Biso   1.000  Cl
  N61      1.0000 0.05893  0.05175  0.30662  Biso   1.000  N
  N62      1.0000 0.07880  0.94777  0.21287  Biso   1.000  N
  C137     1.0000 0.28416  0.03615  0.07320  Biso   1.000  C
  C138     1.0000 0.36528  0.18970  0.05062  Biso   1.000  C
  H75      1.0000 0.03821  0.95309  0.20769  Biso   1.000  H
  C139     1.0000 0.10687  0.88502  0.15980  Biso   1.000  C
  N63      1.0000 0.31452  0.11220  0.02799  Biso   1.000  N
  N64      1.0000 0.23163  0.95672  0.05142  Biso   1.000  N
  Cl16     1.0000 0.40599  0.29634  0.99699  Biso   1.000  Cl
  C140     1.0000 0.16365  0.94076  0.13986  Biso   1.000  C
  C141     1.0000 0.07009  0.77330  0.12452  Biso   1.000  C
  H76      1.0000 0.22772  0.94547  0.01120  Biso   1.000  H
  C142     1.0000 0.18107  0.88768  0.08204  Biso   1.000  C
  H77      1.0000 0.18931  0.01149  0.16451  Biso   1.000  H
  C143     1.0000 0.08996  0.71781  0.06878  Biso   1.000  C
  H78      1.0000 0.03231  0.73631  0.13849  Biso   1.000  H
  C144     1.0000 0.14495  0.77524  0.04723  Biso   1.000  C
  H79      1.0000 0.06598  0.64103  0.04549  Biso   1.000  H
  H80      1.0000 0.15778  0.73824  0.00922  Biso   1.000  H
