data_image0
_cell_length_a       9.825
_cell_length_b       15.716
_cell_length_c       26.844
_cell_angle_alpha    91.39
_cell_angle_beta     91.44
_cell_angle_gamma    92.69

_symmetry_space_group_name_H-M    "P 1"
_symmetry_int_tables_number       1

loop_
  _symmetry_equiv_pos_as_xyz
  'x, y, z'

loop_
  _atom_site_label
  _atom_site_occupancy
  _atom_site_fract_x
  _atom_site_fract_y
  _atom_site_fract_z
  _atom_site_thermal_displace_type
  _atom_site_B_iso_or_equiv
  _atom_site_type_symbol
  C1       1.0000 0.59524  0.65662  0.57502  Biso   1.000  C
  C2       1.0000 0.69591  0.65125  0.53365  Biso   1.000  C
  H1       1.0000 0.55907  0.59832  0.58192  Biso   1.000  H
  H2       1.0000 0.51774  0.68975  0.56339  Biso   1.000  H
  C3       1.0000 0.65396  0.69765  0.62348  Biso   1.000  C
  C4       1.0000 0.63488  0.61182  0.48534  Biso   1.000  C
  H3       1.0000 0.77239  0.61703  0.54490  Biso   1.000  H
  H4       1.0000 0.73341  0.70931  0.52708  Biso   1.000  H
  H5       1.0000 0.58247  0.69886  0.64831  Biso   1.000  H
  H6       1.0000 0.68785  0.75605  0.61740  Biso   1.000  H
  H7       1.0000 0.72897  0.66444  0.63601  Biso   1.000  H
  C5       1.0000 0.73442  0.60584  0.44303  Biso   1.000  C
  H8       1.0000 0.59729  0.55383  0.49201  Biso   1.000  H
  H9       1.0000 0.55812  0.64606  0.47430  Biso   1.000  H
  C6       1.0000 0.67083  0.56902  0.39468  Biso   1.000  C
  H10      1.0000 0.77427  0.66354  0.43691  Biso   1.000  H
  H11      1.0000 0.80960  0.56992  0.45350  Biso   1.000  H
  C7       1.0000 0.76817  0.56384  0.35192  Biso   1.000  C
  H12      1.0000 0.59463  0.60431  0.38462  Biso   1.000  H
  H13      1.0000 0.63219  0.51100  0.40079  Biso   1.000  H
  C8       1.0000 0.70392  0.52973  0.30283  Biso   1.000  C
  H14      1.0000 0.84280  0.52681  0.36162  Biso   1.000  H
  H15      1.0000 0.80929  0.62151  0.34659  Biso   1.000  H
  C9       1.0000 0.80497  0.52580  0.26086  Biso   1.000  C
  H16      1.0000 0.62947  0.56662  0.29292  Biso   1.000  H
  H17      1.0000 0.66337  0.47178  0.30779  Biso   1.000  H
  C10      1.0000 0.74246  0.50374  0.20919  Biso   1.000  C
  H18      1.0000 0.87214  0.48303  0.26910  Biso   1.000  H
  H19      1.0000 0.85518  0.58179  0.25952  Biso   1.000  H
  C11      1.0000 0.69624  0.41009  0.20028  Biso   1.000  C
  H20      1.0000 0.66291  0.53911  0.20379  Biso   1.000  H
  H21      1.0000 0.81029  0.51939  0.18388  Biso   1.000  H
  C12      1.0000 0.63645  0.39561  0.14717  Biso   1.000  C
  H22      1.0000 0.62656  0.39370  0.22470  Biso   1.000  H
  H23      1.0000 0.77487  0.37381  0.20521  Biso   1.000  H
  C13      1.0000 0.49863  0.43570  0.14038  Biso   1.000  C
  H24      1.0000 0.70031  0.42642  0.12461  Biso   1.000  H
  C14      1.0000 0.62711  0.30290  0.12886  Biso   1.000  C
  C15      1.0000 0.39174  0.41618  0.17184  Biso   1.000  C
  C16      1.0000 0.47275  0.49200  0.10214  Biso   1.000  C
  C17      1.0000 0.60957  0.23433  0.16040  Biso   1.000  C
  C18      1.0000 0.63796  0.28350  0.07835  Biso   1.000  C
  C19      1.0000 0.26483  0.45159  0.16875  Biso   1.000  C
  H25      1.0000 0.40634  0.37600  0.19712  Biso   1.000  H
  C20      1.0000 0.34760  0.52877  0.09800  Biso   1.000  C
  O1       1.0000 0.56741  0.51425  0.06747  Biso   1.000  O
  C21      1.0000 0.60153  0.14933  0.14370  Biso   1.000  C
  H26      1.0000 0.60286  0.24603  0.19510  Biso   1.000  H
  C22      1.0000 0.62680  0.20052  0.05987  Biso   1.000  C
  O2       1.0000 0.66137  0.35053  0.04663  Biso   1.000  O
  C23      1.0000 0.15155  0.42600  0.20416  Biso   1.000  C
  C24      1.0000 0.24638  0.51033  0.13091  Biso   1.000  C
  H27      1.0000 0.33151  0.56739  0.07202  Biso   1.000  H
  H28      1.0000 0.61905  0.47400  0.06311  Biso   1.000  H
  C25      1.0000 0.58935  0.07459  0.17840  Biso   1.000  C
  C26      1.0000 0.60709  0.13461  0.09241  Biso   1.000  C
  H29      1.0000 0.63270  0.18888  0.02509  Biso   1.000  H
  H30      1.0000 0.68897  0.33002  0.02032  Biso   1.000  H
  C27      1.0000 0.09141  0.33723  0.19026  Biso   1.000  C
  H31      1.0000 0.07712  0.46619  0.19838  Biso   1.000  H
  C28      1.0000 0.19801  0.43884  0.25914  Biso   1.000  C
  O3       1.0000 0.11977  0.54574  0.12778  Biso   1.000  O
  C29      1.0000 0.44228  0.03900  0.17878  Biso   1.000  C
  H32      1.0000 0.64371  0.02871  0.16349  Biso   1.000  H
  C30      1.0000 0.64898  0.09262  0.23111  Biso   1.000  C
  O4       1.0000 0.59653  0.05345  0.07041  Biso   1.000  O
  C31      1.0000 0.11969  0.26520  0.21695  Biso   1.000  C
  C32      1.0000 0.00672  0.32491  0.14728  Biso   1.000  C
  H33      1.0000 0.12277  0.42003  0.28080  Biso   1.000  H
  H34      1.0000 0.27622  0.40309  0.26611  Biso   1.000  H
  C33      1.0000 0.23921  0.53161  0.27148  Biso   1.000  C
  H35      1.0000 0.12207  0.57497  0.10270  Biso   1.000  H
  C34      1.0000 0.34084  0.08369  0.20159  Biso   1.000  C
  C35      1.0000 0.40114  0.96128  0.15533  Biso   1.000  C
  H36      1.0000 0.73728  0.12520  0.22899  Biso   1.000  H
  H37      1.0000 0.58638  0.12803  0.25009  Biso   1.000  H
  C36      1.0000 0.67036  0.01063  0.25866  Biso   1.000  C
  H38      1.0000 0.57498  0.01703  0.09129  Biso   1.000  H
  C37      1.0000 0.06765  0.18322  0.20383  Biso   1.000  C
  H39      1.0000 0.17755  0.27200  0.24580  Biso   1.000  H
  C38      1.0000 0.95363  0.24468  0.13337  Biso   1.000  C
  O5       1.0000 0.96904  0.38974  0.11761  Biso   1.000  O
  H40      1.0000 0.15838  0.56610  0.26619  Biso   1.000  H
  H41      1.0000 0.30853  0.55089  0.24759  Biso   1.000  H
  C39      1.0000 0.29613  0.55021  0.32415  Biso   1.000  C
  C40      1.0000 0.20594  0.05392  0.20398  Biso   1.000  C
  H42      1.0000 0.36537  0.13803  0.21639  Biso   1.000  H
  C41      1.0000 0.26712  0.92996  0.15581  Biso   1.000  C
  O6       1.0000 0.49927  0.91747  0.13076  Biso   1.000  O
  C42      1.0000 0.72272  0.02431  0.31241  Biso   1.000  C
  H43      1.0000 0.73649  0.97689  0.24021  Biso   1.000  H
  H44      1.0000 0.58304  0.97680  0.25870  Biso   1.000  H
  C43      1.0000 0.10224  0.10432  0.23212  Biso   1.000  C
  C44      1.0000 0.98329  0.17524  0.16096  Biso   1.000  C
  H45      1.0000 0.89615  0.23750  0.10449  Biso   1.000  H
  H46      1.0000 0.01611  0.43601  0.12551  Biso   1.000  H
  H47      1.0000 0.36755  0.50950  0.33120  Biso   1.000  H
  H48      1.0000 0.34046  0.60810  0.32531  Biso   1.000  H
  C45      1.0000 0.19324  0.54501  0.36557  Biso   1.000  C
  C46      1.0000 0.17094  0.97555  0.18016  Biso   1.000  C
  H49      1.0000 0.24147  0.87715  0.13949  Biso   1.000  H
  H50      1.0000 0.48608  0.86444  0.13009  Biso   1.000  H
  H51      1.0000 0.80275  0.06515  0.31278  Biso   1.000  H
  C47      1.0000 0.61834  0.05763  0.34782  Biso   1.000  C
  H52      1.0000 0.75416  0.96949  0.32479  Biso   1.000  H
  H53      1.0000 0.01674  0.06732  0.23242  Biso   1.000  H
  C48      1.0000 0.14701  0.12052  0.28680  Biso   1.000  C
  O7       1.0000 0.92638  0.09734  0.14362  Biso   1.000  O
  H54      1.0000 0.16233  0.48480  0.36959  Biso   1.000  H
  H55      1.0000 0.11265  0.57714  0.35591  Biso   1.000  H
  C49      1.0000 0.25227  0.58093  0.41511  Biso   1.000  C
  O8       1.0000 0.03556  0.94756  0.18094  Biso   1.000  O
  H56      1.0000 0.53770  0.01734  0.34700  Biso   1.000  H
  H57      1.0000 0.58827  0.11291  0.33578  Biso   1.000  H
  C50      1.0000 0.67058  0.06985  0.40169  Biso   1.000  C
  H58      1.0000 0.23549  0.15340  0.28841  Biso   1.000  H
  H59      1.0000 0.07910  0.15496  0.30369  Biso   1.000  H
  C51      1.0000 0.16113  0.03705  0.31390  Biso   1.000  C
  H60      1.0000 0.95100  0.05902  0.16159  Biso   1.000  H
  H61      1.0000 0.32923  0.54614  0.42528  Biso   1.000  H
  H62      1.0000 0.28979  0.63949  0.40989  Biso   1.000  H
  C52      1.0000 0.15392  0.58391  0.45742  Biso   1.000  C
  H63      1.0000 0.01917  0.90429  0.16301  Biso   1.000  H
  H64      1.0000 0.70381  0.01501  0.41339  Biso   1.000  H
  H65      1.0000 0.74883  0.11194  0.40281  Biso   1.000  H
  C53      1.0000 0.56319  0.09992  0.43680  Biso   1.000  C
  H66      1.0000 0.07323  0.00360  0.31099  Biso   1.000  H
  H67      1.0000 0.23055  0.00364  0.29720  Biso   1.000  H
  C54      1.0000 0.20136  0.04841  0.36862  Biso   1.000  C
  H68      1.0000 0.12088  0.52505  0.46450  Biso   1.000  H
  H69      1.0000 0.07418  0.61594  0.44690  Biso   1.000  H
  C55      1.0000 0.21699  0.62535  0.50498  Biso   1.000  C
  H70      1.0000 0.48593  0.05714  0.43598  Biso   1.000  H
  H71      1.0000 0.52863  0.15384  0.42439  Biso   1.000  H
  C56      1.0000 0.61265  0.11436  0.49055  Biso   1.000  C
  H72      1.0000 0.28425  0.08677  0.37172  Biso   1.000  H
  C57      1.0000 0.09240  0.08466  0.40083  Biso   1.000  C
  H73      1.0000 0.22522  0.99241  0.38160  Biso   1.000  H
  H74      1.0000 0.29658  0.59293  0.51519  Biso   1.000  H
  H75      1.0000 0.25098  0.68382  0.49741  Biso   1.000  H
  C58      1.0000 0.12206  0.63051  0.54874  Biso   1.000  C
  H76      1.0000 0.68752  0.15875  0.49178  Biso   1.000  H
  H77      1.0000 0.64980  0.06107  0.50282  Biso   1.000  H
  C59      1.0000 0.50093  0.14166  0.52492  Biso   1.000  C
  H78      1.0000 0.00883  0.04705  0.39740  Biso   1.000  H
  H79      1.0000 0.07026  0.14132  0.38849  Biso   1.000  H
  C60      1.0000 0.13389  0.09367  0.45566  Biso   1.000  C
  H80      1.0000 0.04207  0.66281  0.53879  Biso   1.000  H
  H81      1.0000 0.08862  0.57225  0.55679  Biso   1.000  H
  C61      1.0000 0.18909  0.67285  0.59515  Biso   1.000  C
  H82      1.0000 0.42663  0.09676  0.52369  Biso   1.000  H
  H83      1.0000 0.46286  0.19422  0.51199  Biso   1.000  H
  C62      1.0000 0.54637  0.15796  0.57901  Biso   1.000  C
  H84      1.0000 0.15684  0.03706  0.46782  Biso   1.000  H
  H85      1.0000 0.21726  0.13146  0.45898  Biso   1.000  H
  C63      1.0000 0.02656  0.12912  0.48873  Biso   1.000  C
  H86      1.0000 0.26988  0.64096  0.60451  Biso   1.000  H
  H87      1.0000 0.22171  0.73122  0.58691  Biso   1.000  H
  C64      1.0000 0.09893  0.67842  0.63973  Biso   1.000  C
  H88      1.0000 0.58631  0.10597  0.59191  Biso   1.000  H
  H89      1.0000 0.61855  0.20415  0.58061  Biso   1.000  H
  C65      1.0000 0.43163  0.18266  0.61222  Biso   1.000  C
  H90      1.0000 0.00290  0.18567  0.47661  Biso   1.000  H
  C66      1.0000 0.07137  0.13818  0.54300  Biso   1.000  C
  H91      1.0000 0.94331  0.09116  0.48589  Biso   1.000  H
  H92      1.0000 0.06468  0.62023  0.64778  Biso   1.000  H
  H93      1.0000 0.01920  0.71186  0.63090  Biso   1.000  H
  C67      1.0000 0.17080  0.71934  0.68562  Biso   1.000  C
  H94      1.0000 0.35974  0.13628  0.61069  Biso   1.000  H
  H95      1.0000 0.39136  0.23445  0.59910  Biso   1.000  H
  C68      1.0000 0.47591  0.19973  0.66631  Biso   1.000  C
  H96      1.0000 0.09703  0.08167  0.55459  Biso   1.000  H
  H97      1.0000 0.15394  0.17676  0.54561  Biso   1.000  H
  C69      1.0000 0.96615  0.17198  0.57752  Biso   1.000  C
  H98      1.0000 0.10727  0.72105  0.71309  Biso   1.000  H
  H99      1.0000 0.20316  0.77756  0.67820  Biso   1.000  H
  H100     1.0000 0.24874  0.68593  0.69520  Biso   1.000  H
  H101     1.0000 0.39697  0.21516  0.68558  Biso   1.000  H
  H102     1.0000 0.54532  0.24663  0.66829  Biso   1.000  H
  H103     1.0000 0.51400  0.14834  0.67992  Biso   1.000  H
  C70      1.0000 0.01345  0.18044  0.63157  Biso   1.000  C
  H104     1.0000 0.88340  0.13334  0.57521  Biso   1.000  H
  H105     1.0000 0.94030  0.22855  0.56611  Biso   1.000  H
  H106     1.0000 0.04275  0.12423  0.64249  Biso   1.000  H
  H107     1.0000 0.09429  0.22055  0.63399  Biso   1.000  H
  C71      1.0000 0.90857  0.21116  0.66694  Biso   1.000  C
  H108     1.0000 0.82846  0.17045  0.66542  Biso   1.000  H
  H109     1.0000 0.87800  0.26693  0.65591  Biso   1.000  H
  C72      1.0000 0.96058  0.22044  0.72062  Biso   1.000  C
  H110     1.0000 0.03882  0.26155  0.72271  Biso   1.000  H
  H111     1.0000 0.88792  0.24065  0.74161  Biso   1.000  H
  H112     1.0000 0.98868  0.16514  0.73222  Biso   1.000  H
