data_image0
_cell_length_a       14.667
_cell_length_b       18.896
_cell_length_c       14.907
_cell_angle_alpha    90
_cell_angle_beta     92.9
_cell_angle_gamma    90

_symmetry_space_group_name_H-M    "P 1"
_symmetry_int_tables_number       1

loop_
  _symmetry_equiv_pos_as_xyz
  'x, y, z'

loop_
  _atom_site_label
  _atom_site_occupancy
  _atom_site_fract_x
  _atom_site_fract_y
  _atom_site_fract_z
  _atom_site_thermal_displace_type
  _atom_site_B_iso_or_equiv
  _atom_site_type_symbol
  C1       1.0000 0.53404  0.48291  0.38420  Biso   1.000  C
  C2       1.0000 0.48100  0.54281  0.37507  Biso   1.000  C
  C3       1.0000 0.60065  0.47010  0.32590  Biso   1.000  C
  H1       1.0000 0.52448  0.45110  0.43042  Biso   1.000  H
  C4       1.0000 0.41129  0.55678  0.43942  Biso   1.000  C
  C5       1.0000 0.49610  0.59012  0.30669  Biso   1.000  C
  C6       1.0000 0.61531  0.51561  0.25692  Biso   1.000  C
  Cl1      1.0000 0.66732  0.39363  0.34028  Biso   1.000  Cl
  N1       1.0000 0.36548  0.61341  0.43962  Biso   1.000  N
  H2       1.0000 0.40006  0.52239  0.48220  Biso   1.000  H
  C7       1.0000 0.56380  0.57679  0.24570  Biso   1.000  C
  O1       1.0000 0.44689  0.65003  0.29648  Biso   1.000  O
  H3       1.0000 0.66030  0.50550  0.21702  Biso   1.000  H
  C8       1.0000 0.29769  0.62320  0.50679  Biso   1.000  C
  C9       1.0000 0.58278  0.62759  0.17457  Biso   1.000  C
  H4       1.0000 0.41270  0.65379  0.33813  Biso   1.000  H
  C10      1.0000 0.20395  0.63341  0.45923  Biso   1.000  C
  H5       1.0000 0.29598  0.58028  0.54373  Biso   1.000  H
  C11      1.0000 0.32179  0.68522  0.56710  Biso   1.000  C
  H6       1.0000 0.54222  0.66511  0.16530  Biso   1.000  H
  N2       1.0000 0.64899  0.62442  0.12561  Biso   1.000  N
  N3       1.0000 0.18109  0.56938  0.40852  Biso   1.000  N
  H7       1.0000 0.20665  0.67342  0.41759  Biso   1.000  H
  C12      1.0000 0.13140  0.64760  0.52533  Biso   1.000  C
  C13      1.0000 0.24917  0.69740  0.63447  Biso   1.000  C
  H8       1.0000 0.32797  0.72740  0.53090  Biso   1.000  H
  H9       1.0000 0.37995  0.67628  0.59901  Biso   1.000  H
  C14      1.0000 0.65968  0.68268  0.06173  Biso   1.000  C
  C15      1.0000 0.16167  0.57430  0.32637  Biso   1.000  C
  H10      1.0000 0.12296  0.60568  0.56153  Biso   1.000  H
  H11      1.0000 0.07395  0.65792  0.49268  Biso   1.000  H
  C16      1.0000 0.15766  0.70978  0.58652  Biso   1.000  C
  H12      1.0000 0.24565  0.65649  0.67350  Biso   1.000  H
  H13      1.0000 0.26545  0.73820  0.67142  Biso   1.000  H
  C17      1.0000 0.66203  0.65331  0.96689  Biso   1.000  C
  H14      1.0000 0.60727  0.71460  0.06468  Biso   1.000  H
  C18      1.0000 0.74570  0.72359  0.08517  Biso   1.000  C
  C19      1.0000 0.13681  0.51392  0.27002  Biso   1.000  C
  H15      1.0000 0.16310  0.61881  0.29991  Biso   1.000  H
  H16      1.0000 0.15999  0.75270  0.55098  Biso   1.000  H
  H17      1.0000 0.11156  0.71602  0.63018  Biso   1.000  H
  N4       1.0000 0.57573  0.61891  0.94190  Biso   1.000  N
  H18      1.0000 0.71161  0.61870  0.96440  Biso   1.000  H
  C20      1.0000 0.67682  0.71221  0.89918  Biso   1.000  C
  H19      1.0000 0.79770  0.69189  0.08463  Biso   1.000  H
  H20      1.0000 0.74288  0.74238  0.14562  Biso   1.000  H
  C21      1.0000 0.75966  0.78440  0.01988  Biso   1.000  C
  C22      1.0000 0.13740  0.44602  0.30669  Biso   1.000  C
  C23      1.0000 0.10991  0.52000  0.18169  Biso   1.000  C
  C24      1.0000 0.57461  0.55483  0.91886  Biso   1.000  C
  C25      1.0000 0.76070  0.75640  0.92598  Biso   1.000  C
  H21      1.0000 0.68423  0.69157  0.84041  Biso   1.000  H
  H22      1.0000 0.62344  0.74249  0.89522  Biso   1.000  H
  H23      1.0000 0.71072  0.81859  0.02398  Biso   1.000  H
  H24      1.0000 0.81692  0.80821  0.03553  Biso   1.000  H
  C26      1.0000 0.11336  0.38839  0.25410  Biso   1.000  C
  H25      1.0000 0.15408  0.43951  0.36721  Biso   1.000  H
  C27      1.0000 0.08600  0.46190  0.12648  Biso   1.000  C
  O2       1.0000 0.10770  0.58631  0.14529  Biso   1.000  O
  C28      1.0000 0.48982  0.52011  0.89152  Biso   1.000  C
  H26      1.0000 0.62905  0.52948  0.91946  Biso   1.000  H
  H27      1.0000 0.81490  0.72761  0.92061  Biso   1.000  H
  H28      1.0000 0.76444  0.79578  0.88467  Biso   1.000  H
  C29      1.0000 0.08738  0.39490  0.16651  Biso   1.000  C
  Cl2      1.0000 0.11314  0.30424  0.30421  Biso   1.000  Cl
  C30      1.0000 0.05516  0.47010  0.03459  Biso   1.000  C
  H29      1.0000 0.08267  0.58478  0.09477  Biso   1.000  H
  C31      1.0000 0.40532  0.55588  0.89112  Biso   1.000  C
  C32      1.0000 0.48951  0.44898  0.86419  Biso   1.000  C
  H30      1.0000 0.07038  0.35510  0.13293  Biso   1.000  H
  H31      1.0000 0.04142  0.42988  0.00060  Biso   1.000  H
  N5       1.0000 0.04583  0.53038  0.99758  Biso   1.000  N
  C33      1.0000 0.32415  0.52080  0.86392  Biso   1.000  C
  O3       1.0000 0.40061  0.62421  0.91476  Biso   1.000  O
  C34      1.0000 0.41070  0.41591  0.83530  Biso   1.000  C
  H32      1.0000 0.54414  0.42401  0.86586  Biso   1.000  H
  C35      1.0000 0.01089  0.53551  0.90556  Biso   1.000  C
  C36      1.0000 0.23693  0.55890  0.86748  Biso   1.000  C
  C37      1.0000 0.32846  0.45110  0.83752  Biso   1.000  C
  H33      1.0000 0.45243  0.63992  0.92417  Biso   1.000  H
  Cl3      1.0000 0.41333  0.33002  0.79755  Biso   1.000  Cl
  C38      1.0000 0.92063  0.57679  0.90301  Biso   1.000  C
  H34      1.0000 0.00023  0.48788  0.88111  Biso   1.000  H
  C39      1.0000 0.07850  0.57441  0.84941  Biso   1.000  C
  N6       1.0000 0.16080  0.52958  0.84679  Biso   1.000  N
  H35      1.0000 0.23751  0.60600  0.88548  Biso   1.000  H
  H36      1.0000 0.27476  0.42718  0.82086  Biso   1.000  H
  C40      1.0000 0.88362  0.58822  0.80790  Biso   1.000  C
  H37      1.0000 0.87624  0.55080  0.93612  Biso   1.000  H
  H38      1.0000 0.93043  0.62230  0.93196  Biso   1.000  H
  H39      1.0000 0.09424  0.62018  0.87701  Biso   1.000  H
  C41      1.0000 0.03932  0.58531  0.75430  Biso   1.000  C
  C42      1.0000 0.94926  0.62341  0.75309  Biso   1.000  C
  H40      1.0000 0.86745  0.54281  0.78110  Biso   1.000  H
  H41      1.0000 0.82850  0.61648  0.80857  Biso   1.000  H
  H42      1.0000 0.08211  0.61262  0.72071  Biso   1.000  H
  H43      1.0000 0.03120  0.53969  0.72508  Biso   1.000  H
  H44      1.0000 0.95891  0.67131  0.77512  Biso   1.000  H
  H45      1.0000 0.92422  0.62632  0.69170  Biso   1.000  H
  C43      1.0000 0.51364  0.43189  0.62400  Biso   1.000  C
  C44      1.0000 0.56123  0.37140  0.60532  Biso   1.000  C
  H46      1.0000 0.45019  0.43152  0.62037  Biso   1.000  H
  C45      1.0000 0.55973  0.49301  0.64777  Biso   1.000  C
  C46      1.0000 0.51229  0.30689  0.57510  Biso   1.000  C
  C47      1.0000 0.65527  0.37341  0.61231  Biso   1.000  C
  C48      1.0000 0.65239  0.49471  0.65308  Biso   1.000  C
  Cl4      1.0000 0.49851  0.56996  0.67182  Biso   1.000  Cl
  N7       1.0000 0.42674  0.30541  0.55689  Biso   1.000  N
  H47      1.0000 0.54545  0.26540  0.56899  Biso   1.000  H
  C49      1.0000 0.70158  0.43528  0.63380  Biso   1.000  C
  O4       1.0000 0.70213  0.31345  0.59679  Biso   1.000  O
  H48      1.0000 0.68263  0.53630  0.66981  Biso   1.000  H
  C50      1.0000 0.38695  0.23719  0.53090  Biso   1.000  C
  C51      1.0000 0.80072  0.43872  0.63797  Biso   1.000  C
  H49      1.0000 0.75663  0.32001  0.60922  Biso   1.000  H
  C52      1.0000 0.32458  0.24831  0.44902  Biso   1.000  C
  H50      1.0000 0.43597  0.20459  0.51619  Biso   1.000  H
  C53      1.0000 0.33469  0.20629  0.60311  Biso   1.000  C
  H51      1.0000 0.82799  0.48259  0.64851  Biso   1.000  H
  N8       1.0000 0.85265  0.38601  0.62823  Biso   1.000  N
  N9       1.0000 0.37599  0.27371  0.37339  Biso   1.000  N
  H52      1.0000 0.27796  0.28339  0.46259  Biso   1.000  H
  C54      1.0000 0.27725  0.17850  0.42081  Biso   1.000  C
  C55      1.0000 0.28744  0.13781  0.57671  Biso   1.000  C
  H53      1.0000 0.28915  0.24021  0.62050  Biso   1.000  H
  H54      1.0000 0.37574  0.19782  0.65503  Biso   1.000  H
  C56      1.0000 0.95105  0.39479  0.63790  Biso   1.000  C
  C57      1.0000 0.35459  0.33420  0.34048  Biso   1.000  C
  H55      1.0000 0.23560  0.18692  0.36943  Biso   1.000  H
  H56      1.0000 0.32277  0.14469  0.40308  Biso   1.000  H
  C58      1.0000 0.22536  0.14781  0.49638  Biso   1.000  C
  H57      1.0000 0.33289  0.10230  0.56408  Biso   1.000  H
  H58      1.0000 0.25283  0.12093  0.62621  Biso   1.000  H
  C59      1.0000 0.99469  0.37892  0.55179  Biso   1.000  C
  H59      1.0000 0.96363  0.44438  0.65301  Biso   1.000  H
  C60      1.0000 0.98757  0.34981  0.71568  Biso   1.000  C
  H60      1.0000 0.30965  0.36061  0.36687  Biso   1.000  H
  C61      1.0000 0.39861  0.36320  0.26310  Biso   1.000  C
  H61      1.0000 0.17605  0.17951  0.51062  Biso   1.000  H
  H62      1.0000 0.19885  0.10272  0.47797  Biso   1.000  H
  H63      1.0000 0.97945  0.33049  0.53258  Biso   1.000  H
  N10      1.0000 0.96348  0.42919  0.48180  Biso   1.000  N
  C62      1.0000 0.09846  0.38701  0.56361  Biso   1.000  C
  H64      1.0000 0.97166  0.30059  0.70446  Biso   1.000  H
  H65      1.0000 0.95936  0.36442  0.77022  Biso   1.000  H
  C63      1.0000 0.09058  0.35669  0.72858  Biso   1.000  C
  C64      1.0000 0.46865  0.32711  0.22367  Biso   1.000  C
  C65      1.0000 0.36766  0.42559  0.22468  Biso   1.000  C
  C66      1.0000 0.93567  0.40458  0.40771  Biso   1.000  C
  C67      1.0000 0.13586  0.34129  0.64139  Biso   1.000  C
  H66      1.0000 0.12638  0.37288  0.50867  Biso   1.000  H
  H67      1.0000 0.11364  0.43618  0.57516  Biso   1.000  H
  H68      1.0000 0.10606  0.40432  0.74859  Biso   1.000  H
  H69      1.0000 0.11306  0.32388  0.77459  Biso   1.000  H
  C68      1.0000 0.50898  0.35452  0.14878  Biso   1.000  C
  O5       1.0000 0.50107  0.26519  0.25611  Biso   1.000  O
  C69      1.0000 0.40497  0.45242  0.15207  Biso   1.000  C
  H70      1.0000 0.32000  0.44962  0.24987  Biso   1.000  H
  C70      1.0000 0.90751  0.44978  0.33201  Biso   1.000  C
  H71      1.0000 0.93284  0.35579  0.40039  Biso   1.000  H
  H72      1.0000 0.12682  0.29191  0.62601  Biso   1.000  H
  H73      1.0000 0.20108  0.34949  0.64999  Biso   1.000  H
  C71      1.0000 0.47521  0.41808  0.11251  Biso   1.000  C
  C72      1.0000 0.58426  0.31747  0.10660  Biso   1.000  C
  H74      1.0000 0.46838  0.25090  0.29527  Biso   1.000  H
  Cl5      1.0000 0.36462  0.53255  0.10734  Biso   1.000  Cl
  C73      1.0000 0.87551  0.42030  0.24933  Biso   1.000  C
  C74      1.0000 0.91825  0.52180  0.33678  Biso   1.000  C
  H75      1.0000 0.50006  0.43718  0.06159  Biso   1.000  H
  H76      1.0000 0.60522  0.27519  0.13219  Biso   1.000  H
  N11      1.0000 0.62160  0.33949  0.03849  Biso   1.000  N
  C75      1.0000 0.85147  0.46280  0.17578  Biso   1.000  C
  O6       1.0000 0.86936  0.34859  0.24248  Biso   1.000  O
  C76      1.0000 0.89548  0.56478  0.26263  Biso   1.000  C
  H77      1.0000 0.94097  0.54228  0.39012  Biso   1.000  H
  C77      1.0000 0.69321  0.29652  0.00302  Biso   1.000  C
  C78      1.0000 0.81490  0.43258  0.09162  Biso   1.000  C
  C79      1.0000 0.86212  0.53562  0.18518  Biso   1.000  C
  H78      1.0000 0.85530  0.33769  0.19042  Biso   1.000  H
  Cl6      1.0000 0.91362  0.65532  0.27190  Biso   1.000  Cl
  H79      1.0000 0.70902  0.25910  0.04662  Biso   1.000  H
  C80      1.0000 0.77659  0.33991  0.98979  Biso   1.000  C
  C81      1.0000 0.65904  0.26170  0.91530  Biso   1.000  C
  N12      1.0000 0.81291  0.36637  0.07550  Biso   1.000  N
  H80      1.0000 0.79182  0.46333  0.04722  Biso   1.000  H
  H81      1.0000 0.84579  0.56488  0.13689  Biso   1.000  H
  H82      1.0000 0.75981  0.38019  0.95110  Biso   1.000  H
  C82      1.0000 0.85072  0.29752  0.94640  Biso   1.000  C
  C83      1.0000 0.73105  0.21989  0.87057  Biso   1.000  C
  H83      1.0000 0.60853  0.23058  0.92739  Biso   1.000  H
  H84      1.0000 0.63600  0.29821  0.87426  Biso   1.000  H
  H85      1.0000 0.87224  0.26032  0.98697  Biso   1.000  H
  H86      1.0000 0.90191  0.32832  0.93538  Biso   1.000  H
  C84      1.0000 0.81485  0.26450  0.85740  Biso   1.000  C
  H87      1.0000 0.70674  0.20311  0.81280  Biso   1.000  H
  H88      1.0000 0.74773  0.17909  0.90717  Biso   1.000  H
  H89      1.0000 0.79983  0.30181  0.81448  Biso   1.000  H
  H90      1.0000 0.86215  0.23529  0.83322  Biso   1.000  H
  C85      1.0000 0.71250  0.63781  0.42330  Biso   1.000  C
  C86      1.0000 0.77458  0.64781  0.50363  Biso   1.000  C
  H91      1.0000 0.66706  0.60230  0.43592  Biso   1.000  H
  H92      1.0000 0.74705  0.62093  0.37379  Biso   1.000  H
  C87      1.0000 0.66526  0.70629  0.39690  Biso   1.000  C
  C88      1.0000 0.72263  0.67850  0.57919  Biso   1.000  C
  H93      1.0000 0.82390  0.67951  0.48939  Biso   1.000  H
  H94      1.0000 0.80110  0.60272  0.52197  Biso   1.000  H
  C89      1.0000 0.61299  0.73719  0.46911  Biso   1.000  C
  H95      1.0000 0.71079  0.74021  0.37950  Biso   1.000  H
  H96      1.0000 0.62420  0.69782  0.34498  Biso   1.000  H
  C90      1.0000 0.67536  0.74831  0.55098  Biso   1.000  C
  H97      1.0000 0.76434  0.68692  0.63058  Biso   1.000  H
  H98      1.0000 0.67718  0.64469  0.59693  Biso   1.000  H
  H99      1.0000 0.56398  0.70459  0.48382  Biso   1.000  H
  N13      1.0000 0.57314  0.80541  0.44311  Biso   1.000  N
  H100     1.0000 0.72198  0.78339  0.53742  Biso   1.000  H
  N14      1.0000 0.62396  0.77371  0.62662  Biso   1.000  N
  C91      1.0000 0.48766  0.80689  0.42491  Biso   1.000  C
  C92      1.0000 0.64535  0.83420  0.65953  Biso   1.000  C
  C93      1.0000 0.43865  0.87140  0.39468  Biso   1.000  C
  H101     1.0000 0.45449  0.76540  0.43102  Biso   1.000  H
  H102     1.0000 0.69022  0.86061  0.63313  Biso   1.000  H
  C94      1.0000 0.60133  0.86320  0.73691  Biso   1.000  C
  C95      1.0000 0.34468  0.87341  0.38770  Biso   1.000  C
  C96      1.0000 0.48630  0.93189  0.37601  Biso   1.000  C
  C97      1.0000 0.53122  0.82711  0.77627  Biso   1.000  C
  C98      1.0000 0.63222  0.92559  0.77533  Biso   1.000  C
  C99      1.0000 0.29837  0.93528  0.36620  Biso   1.000  C
  O7       1.0000 0.29775  0.81345  0.40321  Biso   1.000  O
  H103     1.0000 0.54976  0.93152  0.37957  Biso   1.000  H
  C100     1.0000 0.44015  0.99301  0.35223  Biso   1.000  C
  C101     1.0000 0.49097  0.85452  0.85123  Biso   1.000  C
  O8       1.0000 0.49888  0.76519  0.74389  Biso   1.000  O
  C102     1.0000 0.59497  0.95242  0.84787  Biso   1.000  C
  H104     1.0000 0.67994  0.94962  0.75007  Biso   1.000  H
  C103     1.0000 0.34756  0.99471  0.34693  Biso   1.000  C
  C104     1.0000 0.19915  0.93872  0.36197  Biso   1.000  C
  H105     1.0000 0.24325  0.82001  0.39079  Biso   1.000  H
  Cl7      1.0000 0.50143  0.06996  0.32819  Biso   1.000  Cl
  C105     1.0000 0.52474  0.91808  0.88750  Biso   1.000  C
  C106     1.0000 0.41561  0.81747  0.89341  Biso   1.000  C
  H106     1.0000 0.53156  0.75090  0.70467  Biso   1.000  H
  Cl8      1.0000 0.63532  0.03255  0.89260  Biso   1.000  Cl
  H107     1.0000 0.31725  0.03630  0.33020  Biso   1.000  H
  H108     1.0000 0.17196  0.98259  0.35149  Biso   1.000  H
  N15      1.0000 0.14730  0.88601  0.37178  Biso   1.000  N
  H109     1.0000 0.49981  0.93718  0.93841  Biso   1.000  H
  H110     1.0000 0.39473  0.77519  0.86782  Biso   1.000  H
  N16      1.0000 0.37834  0.83949  0.96152  Biso   1.000  N
  C107     1.0000 0.04889  0.89479  0.36211  Biso   1.000  C
  C108     1.0000 0.30674  0.79652  0.99698  Biso   1.000  C
  C109     1.0000 0.00525  0.87892  0.44822  Biso   1.000  C
  H111     1.0000 0.03625  0.94438  0.34699  Biso   1.000  H
  C110     1.0000 0.01237  0.84981  0.28432  Biso   1.000  C
  H112     1.0000 0.29093  0.75910  0.95339  Biso   1.000  H
  C111     1.0000 0.22328  0.83991  0.01022  Biso   1.000  C
  C112     1.0000 0.34091  0.76170  0.08471  Biso   1.000  C
  H113     1.0000 0.02049  0.83049  0.46743  Biso   1.000  H
  N17      1.0000 0.03646  0.92919  0.51821  Biso   1.000  N
  C113     1.0000 0.90149  0.88701  0.43639  Biso   1.000  C
  H114     1.0000 0.02828  0.80059  0.29547  Biso   1.000  H
  H115     1.0000 0.04059  0.86442  0.22978  Biso   1.000  H
  C114     1.0000 0.90937  0.85669  0.27143  Biso   1.000  C
  N18      1.0000 0.18704  0.86637  0.92451  Biso   1.000  N
  H116     1.0000 0.24014  0.88019  0.04890  Biso   1.000  H
  C115     1.0000 0.14922  0.79752  0.05361  Biso   1.000  C
  C116     1.0000 0.26889  0.71989  0.12937  Biso   1.000  C
  H117     1.0000 0.39142  0.73058  0.07262  Biso   1.000  H
  H118     1.0000 0.36388  0.79821  0.12568  Biso   1.000  H
  C117     1.0000 0.06427  0.90458  0.59229  Biso   1.000  C
  C118     1.0000 0.86408  0.84129  0.35861  Biso   1.000  C
  H119     1.0000 0.87356  0.87288  0.49127  Biso   1.000  H
  H120     1.0000 0.88630  0.93618  0.42477  Biso   1.000  H
  H121     1.0000 0.89389  0.90432  0.25141  Biso   1.000  H
  H122     1.0000 0.88689  0.82388  0.22542  Biso   1.000  H
  C119     1.0000 0.18505  0.93258  0.90839  Biso   1.000  C
  H123     1.0000 0.12770  0.76032  0.01304  Biso   1.000  H
  H124     1.0000 0.09804  0.82832  0.06462  Biso   1.000  H
  C120     1.0000 0.18509  0.76450  0.14261  Biso   1.000  C
  H125     1.0000 0.29320  0.70311  0.18720  Biso   1.000  H
  H126     1.0000 0.25221  0.67909  0.09283  Biso   1.000  H
  C121     1.0000 0.09244  0.94978  0.66799  Biso   1.000  C
  H127     1.0000 0.06704  0.85579  0.59961  Biso   1.000  H
  H128     1.0000 0.87305  0.79191  0.37399  Biso   1.000  H
  H129     1.0000 0.79887  0.84949  0.35002  Biso   1.000  H
  H130     1.0000 0.20813  0.96333  0.95279  Biso   1.000  H
  C122     1.0000 0.14847  0.96280  0.82423  Biso   1.000  C
  H131     1.0000 0.20012  0.80181  0.18553  Biso   1.000  H
  H132     1.0000 0.13779  0.73529  0.16679  Biso   1.000  H
  C123     1.0000 0.12444  0.92030  0.75068  Biso   1.000  C
  C124     1.0000 0.08163  0.02180  0.66322  Biso   1.000  C
  C125     1.0000 0.13783  0.03562  0.81482  Biso   1.000  C
  O9       1.0000 0.13052  0.84859  0.75753  Biso   1.000  O
  H133     1.0000 0.05897  0.04228  0.60989  Biso   1.000  H
  C126     1.0000 0.10446  0.06478  0.73738  Biso   1.000  C
  H134     1.0000 0.15415  0.06488  0.86312  Biso   1.000  H
  H135     1.0000 0.14465  0.83769  0.80958  Biso   1.000  H
  Cl9      1.0000 0.08633  0.15532  0.72811  Biso   1.000  Cl
  C127     1.0000 0.67815  0.18522  0.43290  Biso   1.000  C
  C128     1.0000 0.70226  0.12320  0.49322  Biso   1.000  C
  C129     1.0000 0.75078  0.19740  0.36553  Biso   1.000  C
  H136     1.0000 0.67197  0.22740  0.46911  Biso   1.000  H
  H137     1.0000 0.61999  0.17628  0.40100  Biso   1.000  H
  H138     1.0000 0.70397  0.08028  0.45628  Biso   1.000  H
  C130     1.0000 0.79599  0.13341  0.54077  Biso   1.000  C
  N19      1.0000 0.63446  0.11341  0.56039  Biso   1.000  N
  C131     1.0000 0.84229  0.20978  0.41349  Biso   1.000  C
  H139     1.0000 0.75430  0.15649  0.32651  Biso   1.000  H
  H140     1.0000 0.73449  0.23820  0.32859  Biso   1.000  H
  H141     1.0000 0.79323  0.17342  0.58242  Biso   1.000  H
  C132     1.0000 0.86855  0.14760  0.47468  Biso   1.000  C
  N20      1.0000 0.81885  0.06938  0.59149  Biso   1.000  N
  C133     1.0000 0.58865  0.05678  0.56059  Biso   1.000  C
  H142     1.0000 0.83996  0.25270  0.44902  Biso   1.000  H
  H143     1.0000 0.88838  0.21602  0.36983  Biso   1.000  H
  H144     1.0000 0.87698  0.10568  0.43848  Biso   1.000  H
  H145     1.0000 0.92600  0.15792  0.50732  Biso   1.000  H
  C134     1.0000 0.83828  0.07430  0.67357  Biso   1.000  C
  C135     1.0000 0.51894  0.04281  0.62487  Biso   1.000  C
  H146     1.0000 0.59989  0.02239  0.51780  Biso   1.000  H
  H147     1.0000 0.83685  0.11881  0.70010  Biso   1.000  H
  C136     1.0000 0.86313  0.01392  0.72999  Biso   1.000  C
  C137     1.0000 0.50384  0.09012  0.69331  Biso   1.000  C
  C138     1.0000 0.46584  0.98291  0.61580  Biso   1.000  C
  C139     1.0000 0.89004  0.02000  0.81832  Biso   1.000  C
  C140     1.0000 0.86254  0.94602  0.69331  Biso   1.000  C
  C141     1.0000 0.43614  0.07679  0.75430  Biso   1.000  C
  O10      1.0000 0.55305  0.15003  0.70352  Biso   1.000  O
  C142     1.0000 0.39922  0.97010  0.67410  Biso   1.000  C
  H148     1.0000 0.47546  0.95110  0.56959  Biso   1.000  H
  O11      1.0000 0.89225  0.08631  0.85472  Biso   1.000  O
  C143     1.0000 0.91394  0.96190  0.87353  Biso   1.000  C
  C144     1.0000 0.88652  0.88839  0.74591  Biso   1.000  C
  H149     1.0000 0.84586  0.93951  0.63280  Biso   1.000  H
  C145     1.0000 0.38463  0.01561  0.74309  Biso   1.000  C
  C146     1.0000 0.41716  0.12759  0.82537  Biso   1.000  C
  H150     1.0000 0.58725  0.15379  0.66188  Biso   1.000  H
  Cl10     1.0000 0.33262  0.89363  0.65973  Biso   1.000  Cl
  H151     1.0000 0.91721  0.08478  0.90516  Biso   1.000  H
  C147     1.0000 0.91257  0.89490  0.83350  Biso   1.000  C
  C148     1.0000 0.94471  0.97010  0.96541  Biso   1.000  C
  Cl11     1.0000 0.88680  0.80424  0.69573  Biso   1.000  Cl
  H152     1.0000 0.33964  0.00550  0.78298  Biso   1.000  H
  H153     1.0000 0.45773  0.16511  0.83470  Biso   1.000  H
  N21      1.0000 0.35096  0.12442  0.87440  Biso   1.000  N
  H154     1.0000 0.92957  0.85510  0.86708  Biso   1.000  H
  H155     1.0000 0.95853  0.92988  0.99940  Biso   1.000  H
  N22      1.0000 0.95412  0.03038  0.00242  Biso   1.000  N
  C149     1.0000 0.34026  0.18268  0.93828  Biso   1.000  C
  C150     1.0000 0.98898  0.03551  0.09438  Biso   1.000  C
  H156     1.0000 0.39261  0.21460  0.93532  Biso   1.000  H
  C151     1.0000 0.25424  0.22359  0.91477  Biso   1.000  C
  C152     1.0000 0.33791  0.15331  0.03312  Biso   1.000  C
  H157     1.0000 0.99972  0.98788  0.11889  Biso   1.000  H
  C153     1.0000 0.92137  0.07441  0.15060  Biso   1.000  C
  C154     1.0000 0.07932  0.07679  0.09700  Biso   1.000  C
  H158     1.0000 0.20225  0.19189  0.91537  Biso   1.000  H
  H159     1.0000 0.25706  0.24238  0.85438  Biso   1.000  H
  C155     1.0000 0.24021  0.28440  0.98012  Biso   1.000  C
  H160     1.0000 0.28834  0.11870  0.03561  Biso   1.000  H
  C156     1.0000 0.32312  0.21221  0.10083  Biso   1.000  C
  N23      1.0000 0.42422  0.11891  0.05811  Biso   1.000  N
  H161     1.0000 0.90570  0.12018  0.12299  Biso   1.000  H
  C157     1.0000 0.96063  0.08531  0.24571  Biso   1.000  C
  N24      1.0000 0.83908  0.02958  0.15322  Biso   1.000  N
  C158     1.0000 0.11632  0.08822  0.19211  Biso   1.000  C
  H162     1.0000 0.12370  0.05080  0.06388  Biso   1.000  H
  H163     1.0000 0.06951  0.12230  0.06798  Biso   1.000  H
  H164     1.0000 0.28923  0.31859  0.97603  Biso   1.000  H
  H165     1.0000 0.18302  0.30821  0.96447  Biso   1.000  H
  C159     1.0000 0.23918  0.25640  0.07403  Biso   1.000  C
  H166     1.0000 0.31571  0.19157  0.15960  Biso   1.000  H
  H167     1.0000 0.37651  0.24249  0.10479  Biso   1.000  H
  C160     1.0000 0.42533  0.05483  0.08108  Biso   1.000  C
  H168     1.0000 0.91776  0.11262  0.27929  Biso   1.000  H
  H169     1.0000 0.96867  0.03969  0.27493  Biso   1.000  H
  C161     1.0000 0.05069  0.12341  0.24692  Biso   1.000  C
  C162     1.0000 0.76302  0.05890  0.13253  Biso   1.000  C
  H170     1.0000 0.13249  0.04281  0.21891  Biso   1.000  H
  H171     1.0000 0.17138  0.11648  0.19144  Biso   1.000  H
  H172     1.0000 0.18498  0.22761  0.07940  Biso   1.000  H
  H173     1.0000 0.23551  0.29578  0.11533  Biso   1.000  H
  C163     1.0000 0.51013  0.02011  0.10848  Biso   1.000  C
  H174     1.0000 0.37089  0.02948  0.08047  Biso   1.000  H
  H175     1.0000 0.04096  0.17131  0.22489  Biso   1.000  H
  H176     1.0000 0.07566  0.12632  0.30831  Biso   1.000  H
  H177     1.0000 0.76243  0.10600  0.11453  Biso   1.000  H
  C164     1.0000 0.67579  0.02080  0.13609  Biso   1.000  C
  C165     1.0000 0.51037  0.94898  0.13582  Biso   1.000  C
  C166     1.0000 0.59462  0.05588  0.10889  Biso   1.000  C
  C167     1.0000 0.67149  0.95110  0.16249  Biso   1.000  C
  H178     1.0000 0.45581  0.92401  0.13407  Biso   1.000  H
  C168     1.0000 0.58917  0.91591  0.16470  Biso   1.000  C
  O12      1.0000 0.59933  0.12421  0.08518  Biso   1.000  O
  H179     1.0000 0.72518  0.92718  0.17908  Biso   1.000  H
  Cl12     1.0000 0.58655  0.83002  0.20245  Biso   1.000  Cl
  H180     1.0000 0.54751  0.13992  0.07577  Biso   1.000  H
