data_image0
_cell_length_a       13.456
_cell_length_b       14.544
_cell_length_c       33.351
_cell_angle_alpha    98.32
_cell_angle_beta     92.91
_cell_angle_gamma    96.65

_symmetry_space_group_name_H-M    "P 1"
_symmetry_int_tables_number       1

loop_
  _symmetry_equiv_pos_as_xyz
  'x, y, z'

loop_
  _atom_site_label
  _atom_site_occupancy
  _atom_site_fract_x
  _atom_site_fract_y
  _atom_site_fract_z
  _atom_site_thermal_displace_type
  _atom_site_B_iso_or_equiv
  _atom_site_type_symbol
  C1       1.0000 0.56067  0.42111  0.47673  Biso   1.000  C
  C2       1.0000 0.46916  0.36427  0.47157  Biso   1.000  C
  H1       1.0000 0.60845  0.41394  0.49681  Biso   1.000  H
  C3       1.0000 0.58046  0.48856  0.45170  Biso   1.000  C
  C4       1.0000 0.39669  0.37315  0.44138  Biso   1.000  C
  O1       1.0000 0.44673  0.29632  0.49560  Biso   1.000  O
  C5       1.0000 0.51010  0.49993  0.42109  Biso   1.000  C
  O2       1.0000 0.66995  0.54586  0.45562  Biso   1.000  O
  C6       1.0000 0.29792  0.30906  0.43664  Biso   1.000  C
  C7       1.0000 0.41948  0.44114  0.41668  Biso   1.000  C
  H2       1.0000 0.48893  0.30315  0.51470  Biso   1.000  H
  C8       1.0000 0.53632  0.57130  0.39302  Biso   1.000  C
  H3       1.0000 0.70146  0.54020  0.47661  Biso   1.000  H
  C9       1.0000 0.21419  0.35098  0.41641  Biso   1.000  C
  C10      1.0000 0.31259  0.21135  0.41538  Biso   1.000  C
  H4       1.0000 0.27872  0.30198  0.46410  Biso   1.000  H
  H5       1.0000 0.37209  0.44757  0.39630  Biso   1.000  H
  C11      1.0000 0.44405  0.60540  0.37473  Biso   1.000  C
  C12      1.0000 0.60425  0.53079  0.36134  Biso   1.000  C
  H6       1.0000 0.57584  0.62577  0.40960  Biso   1.000  H
  C13      1.0000 0.17299  0.31722  0.37710  Biso   1.000  C
  C14      1.0000 0.17725  0.42962  0.43679  Biso   1.000  C
  H7       1.0000 0.24981  0.17148  0.41261  Biso   1.000  H
  H8       1.0000 0.33629  0.21583  0.38901  Biso   1.000  H
  H9       1.0000 0.36084  0.18546  0.43120  Biso   1.000  H
  C15      1.0000 0.40855  0.57935  0.33412  Biso   1.000  C
  C16      1.0000 0.39186  0.66796  0.39861  Biso   1.000  C
  H10      1.0000 0.66095  0.51072  0.37479  Biso   1.000  H
  H11      1.0000 0.56731  0.47824  0.34390  Biso   1.000  H
  H12      1.0000 0.62723  0.57782  0.34539  Biso   1.000  H
  C17      1.0000 0.09723  0.35554  0.35763  Biso   1.000  C
  H13      1.0000 0.19770  0.26577  0.36301  Biso   1.000  H
  C18      1.0000 0.10183  0.47013  0.41841  Biso   1.000  C
  O3       1.0000 0.21669  0.46505  0.47512  Biso   1.000  O
  C19      1.0000 0.32524  0.61223  0.31672  Biso   1.000  C
  H14      1.0000 0.44230  0.53774  0.31769  Biso   1.000  H
  C20      1.0000 0.30670  0.69984  0.38290  Biso   1.000  C
  O4       1.0000 0.42714  0.69930  0.43813  Biso   1.000  O
  C21      1.0000 0.05653  0.31806  0.31423  Biso   1.000  C
  C22      1.0000 0.06104  0.43275  0.37947  Biso   1.000  C
  H15      1.0000 0.07850  0.52279  0.43220  Biso   1.000  H
  H16      1.0000 0.18924  0.51070  0.48390  Biso   1.000  H
  C23      1.0000 0.29077  0.58713  0.27210  Biso   1.000  C
  C24      1.0000 0.27362  0.67171  0.34229  Biso   1.000  C
  H17      1.0000 0.27198  0.73998  0.39949  Biso   1.000  H
  H18      1.0000 0.41213  0.75504  0.44529  Biso   1.000  H
  C25      1.0000 0.08499  0.22072  0.29877  Biso   1.000  C
  C26      1.0000 0.08784  0.38435  0.28449  Biso   1.000  C
  H19      1.0000 0.98322  0.31203  0.31401  Biso   1.000  H
  O5       1.0000 0.98407  0.47087  0.36240  Biso   1.000  O
  C27      1.0000 0.20034  0.51173  0.26396  Biso   1.000  C
  C28      1.0000 0.37533  0.56115  0.24534  Biso   1.000  C
  H20      1.0000 0.26878  0.64372  0.26371  Biso   1.000  H
  O6       1.0000 0.18959  0.70249  0.32659  Biso   1.000  O
  H21      1.0000 0.05750  0.20087  0.27131  Biso   1.000  H
  H22      1.0000 0.15668  0.22333  0.29950  Biso   1.000  H
  H23      1.0000 0.05860  0.17695  0.31572  Biso   1.000  H
  C29      1.0000 0.03297  0.37551  0.24698  Biso   1.000  C
  C30      1.0000 0.17062  0.45289  0.29184  Biso   1.000  C
  H24      1.0000 0.96999  0.51514  0.37832  Biso   1.000  H
  C31      1.0000 0.14301  0.50054  0.22702  Biso   1.000  C
  H25      1.0000 0.43121  0.60958  0.25080  Biso   1.000  H
  H26      1.0000 0.39591  0.50301  0.25111  Biso   1.000  H
  H27      1.0000 0.35187  0.55445  0.21730  Biso   1.000  H
  H28      1.0000 0.17111  0.74205  0.34469  Biso   1.000  H
  C32      1.0000 0.06084  0.43223  0.21836  Biso   1.000  C
  O7       1.0000 0.95038  0.30860  0.23954  Biso   1.000  O
  H29      1.0000 0.20804  0.45976  0.31660  Biso   1.000  H
  O8       1.0000 0.17051  0.55985  0.19990  Biso   1.000  O
  H30      1.0000 0.02440  0.42446  0.19340  Biso   1.000  H
  H31      1.0000 0.91648  0.31772  0.21970  Biso   1.000  H
  H32      1.0000 0.12620  0.55435  0.18161  Biso   1.000  H
  C33      1.0000 0.43960  0.57903  0.52330  Biso   1.000  C
  C34      1.0000 0.53111  0.63586  0.52843  Biso   1.000  C
  H33      1.0000 0.39189  0.58620  0.50322  Biso   1.000  H
  C35      1.0000 0.41982  0.51164  0.54830  Biso   1.000  C
  O9       1.0000 0.55361  0.70381  0.50440  Biso   1.000  O
  C36      1.0000 0.60358  0.62698  0.55862  Biso   1.000  C
  O10      1.0000 0.33033  0.45428  0.54441  Biso   1.000  O
  C37      1.0000 0.49017  0.50021  0.57894  Biso   1.000  C
  H34      1.0000 0.51134  0.69698  0.48530  Biso   1.000  H
  C38      1.0000 0.70235  0.69109  0.56339  Biso   1.000  C
  C39      1.0000 0.58079  0.55899  0.58332  Biso   1.000  C
  H35      1.0000 0.29882  0.45994  0.52342  Biso   1.000  H
  C40      1.0000 0.46395  0.42883  0.60698  Biso   1.000  C
  C41      1.0000 0.78608  0.64915  0.58359  Biso   1.000  C
  C42      1.0000 0.68768  0.78879  0.58465  Biso   1.000  C
  H36      1.0000 0.72155  0.69815  0.53590  Biso   1.000  H
  H37      1.0000 0.62818  0.55256  0.60370  Biso   1.000  H
  C43      1.0000 0.39602  0.46935  0.63869  Biso   1.000  C
  H38      1.0000 0.42443  0.37436  0.59040  Biso   1.000  H
  C44      1.0000 0.55622  0.39474  0.62530  Biso   1.000  C
  C45      1.0000 0.82302  0.57052  0.56324  Biso   1.000  C
  C46      1.0000 0.82728  0.68292  0.62293  Biso   1.000  C
  H39      1.0000 0.75047  0.82866  0.58742  Biso   1.000  H
  H40      1.0000 0.66398  0.78432  0.61102  Biso   1.000  H
  H41      1.0000 0.63950  0.81467  0.56880  Biso   1.000  H
  H42      1.0000 0.33939  0.48941  0.62520  Biso   1.000  H
  H43      1.0000 0.43296  0.52189  0.65610  Biso   1.000  H
  H44      1.0000 0.37304  0.42231  0.65461  Biso   1.000  H
  C47      1.0000 0.60841  0.33218  0.60139  Biso   1.000  C
  C48      1.0000 0.59172  0.42079  0.66591  Biso   1.000  C
  O11      1.0000 0.78358  0.53508  0.52488  Biso   1.000  O
  C49      1.0000 0.89844  0.53001  0.58162  Biso   1.000  C
  C50      1.0000 0.90304  0.64460  0.64240  Biso   1.000  C
  H45      1.0000 0.80257  0.73437  0.63702  Biso   1.000  H
  O12      1.0000 0.57320  0.30083  0.56187  Biso   1.000  O
  C51      1.0000 0.69356  0.30029  0.61709  Biso   1.000  C
  C52      1.0000 0.67504  0.38791  0.68331  Biso   1.000  C
  H46      1.0000 0.55797  0.46239  0.68231  Biso   1.000  H
  H47      1.0000 0.81103  0.48950  0.51610  Biso   1.000  H
  C53      1.0000 0.93924  0.56745  0.62053  Biso   1.000  C
  H48      1.0000 0.92177  0.47734  0.56780  Biso   1.000  H
  C54      1.0000 0.94381  0.68207  0.68577  Biso   1.000  C
  H49      1.0000 0.58814  0.24509  0.55470  Biso   1.000  H
  H50      1.0000 0.72837  0.26015  0.60051  Biso   1.000  H
  C55      1.0000 0.72672  0.32843  0.65774  Biso   1.000  C
  C56      1.0000 0.70950  0.41300  0.72790  Biso   1.000  C
  O13      1.0000 0.01627  0.52926  0.63760  Biso   1.000  O
  C57      1.0000 0.91529  0.77942  0.70126  Biso   1.000  C
  C58      1.0000 0.91250  0.61579  0.71554  Biso   1.000  C
  H51      1.0000 0.01713  0.68811  0.68602  Biso   1.000  H
  O14      1.0000 0.81068  0.29764  0.67341  Biso   1.000  O
  C59      1.0000 0.62494  0.43899  0.75469  Biso   1.000  C
  H52      1.0000 0.73149  0.35642  0.73632  Biso   1.000  H
  C60      1.0000 0.79993  0.48840  0.73604  Biso   1.000  C
  H53      1.0000 0.03028  0.48500  0.62171  Biso   1.000  H
  H54      1.0000 0.94278  0.79927  0.72872  Biso   1.000  H
  H55      1.0000 0.84359  0.77680  0.70050  Biso   1.000  H
  H56      1.0000 0.94174  0.82319  0.68431  Biso   1.000  H
  C61      1.0000 0.96730  0.62463  0.75305  Biso   1.000  C
  C62      1.0000 0.82964  0.54724  0.70816  Biso   1.000  C
  H57      1.0000 0.82916  0.25808  0.65531  Biso   1.000  H
  H58      1.0000 0.56907  0.39062  0.74919  Biso   1.000  H
  H59      1.0000 0.60436  0.49713  0.74892  Biso   1.000  H
  H60      1.0000 0.64840  0.44568  0.78270  Biso   1.000  H
  C63      1.0000 0.85733  0.49960  0.77301  Biso   1.000  C
  C64      1.0000 0.93950  0.56790  0.78164  Biso   1.000  C
  O15      1.0000 0.04989  0.69154  0.76049  Biso   1.000  O
  H61      1.0000 0.79230  0.54037  0.68340  Biso   1.000  H
  O16      1.0000 0.82983  0.44028  0.80010  Biso   1.000  O
  H62      1.0000 0.97594  0.57567  0.80660  Biso   1.000  H
  H63      1.0000 0.08379  0.68241  0.78030  Biso   1.000  H
  H64      1.0000 0.87407  0.44579  0.81842  Biso   1.000  H
  O17      1.0000 0.84218  0.45691  0.29877  Biso   1.000  O
  C65      1.0000 0.86929  0.51614  0.27161  Biso   1.000  C
  H65      1.0000 0.88612  0.46332  0.31730  Biso   1.000  H
  C66      1.0000 0.81036  0.50661  0.23507  Biso   1.000  C
  C67      1.0000 0.95226  0.58390  0.28009  Biso   1.000  C
  C68      1.0000 0.71586  0.43579  0.22775  Biso   1.000  C
  C69      1.0000 0.83914  0.56642  0.20758  Biso   1.000  C
  H66      1.0000 0.98999  0.59044  0.30469  Biso   1.000  H
  C70      1.0000 0.97877  0.64189  0.25175  Biso   1.000  C
  C71      1.0000 0.63341  0.47545  0.25245  Biso   1.000  C
  C72      1.0000 0.68368  0.40534  0.18307  Biso   1.000  C
  H67      1.0000 0.73150  0.37985  0.23881  Biso   1.000  H
  C73      1.0000 0.92267  0.63421  0.21457  Biso   1.000  C
  H68      1.0000 0.80052  0.56086  0.18319  Biso   1.000  H
  O18      1.0000 0.06102  0.70851  0.25916  Biso   1.000  O
  H69      1.0000 0.57370  0.43132  0.24819  Biso   1.000  H
  H70      1.0000 0.61973  0.53324  0.24391  Biso   1.000  H
  H71      1.0000 0.65527  0.48676  0.28082  Biso   1.000  H
  C74      1.0000 0.73409  0.34150  0.15929  Biso   1.000  C
  C75      1.0000 0.60157  0.43619  0.16421  Biso   1.000  C
  C76      1.0000 0.95332  0.69903  0.18401  Biso   1.000  C
  H72      1.0000 0.09361  0.70072  0.27960  Biso   1.000  H
  O19      1.0000 0.81538  0.30967  0.17672  Biso   1.000  O
  C77      1.0000 0.70290  0.31000  0.11874  Biso   1.000  C
  C78      1.0000 0.56665  0.40630  0.12372  Biso   1.000  C
  H73      1.0000 0.56776  0.47951  0.17961  Biso   1.000  H
  C79      1.0000 0.92450  0.79675  0.19856  Biso   1.000  C
  C80      1.0000 0.91087  0.65889  0.14109  Biso   1.000  C
  H74      1.0000 0.02658  0.70495  0.18389  Biso   1.000  H
  H75      1.0000 0.83304  0.26403  0.16281  Biso   1.000  H
  C81      1.0000 0.61930  0.34190  0.10130  Biso   1.000  C
  H76      1.0000 0.73764  0.26774  0.10321  Biso   1.000  H
  C82      1.0000 0.47446  0.43985  0.10485  Biso   1.000  C
  H77      1.0000 0.94394  0.83773  0.17939  Biso   1.000  H
  H78      1.0000 0.95839  0.82102  0.22459  Biso   1.000  H
  H79      1.0000 0.85330  0.79262  0.20081  Biso   1.000  H
  C83      1.0000 0.83512  0.69611  0.12107  Biso   1.000  C
  C84      1.0000 0.94548  0.57994  0.12022  Biso   1.000  C
  O20      1.0000 0.58773  0.30904  0.06139  Biso   1.000  O
  C85      1.0000 0.40618  0.47969  0.13681  Biso   1.000  C
  H80      1.0000 0.43534  0.38494  0.08839  Biso   1.000  H
  C86      1.0000 0.49916  0.51123  0.07661  Biso   1.000  C
  H81      1.0000 0.81076  0.74854  0.13459  Biso   1.000  H
  C87      1.0000 0.79354  0.65955  0.08207  Biso   1.000  C
  C88      1.0000 0.90447  0.53996  0.08156  Biso   1.000  C
  O21      1.0000 0.02074  0.54146  0.13827  Biso   1.000  O
  H82      1.0000 0.62001  0.26398  0.05331  Biso   1.000  H
  H83      1.0000 0.34940  0.49961  0.12350  Biso   1.000  H
  H84      1.0000 0.44296  0.53213  0.15430  Biso   1.000  H
  H85      1.0000 0.38356  0.43213  0.15260  Biso   1.000  H
  C89      1.0000 0.42842  0.52293  0.04614  Biso   1.000  C
  C90      1.0000 0.58974  0.56966  0.08037  Biso   1.000  C
  C91      1.0000 0.71061  0.70166  0.06096  Biso   1.000  C
  C92      1.0000 0.82974  0.58005  0.06260  Biso   1.000  C
  H86      1.0000 0.92717  0.48635  0.06840  Biso   1.000  H
  H87      1.0000 0.03209  0.49199  0.12469  Biso   1.000  H
  O22      1.0000 0.33865  0.46580  0.04213  Biso   1.000  O
  C93      1.0000 0.44753  0.58955  0.02072  Biso   1.000  C
  C94      1.0000 0.61237  0.63679  0.05522  Biso   1.000  C
  H88      1.0000 0.63747  0.56362  0.10069  Biso   1.000  H
  C95      1.0000 0.69144  0.79702  0.08304  Biso   1.000  C
  H89      1.0000 0.73144  0.71060  0.03390  Biso   1.000  H
  O23      1.0000 0.79229  0.54375  0.02375  Biso   1.000  O
  H90      1.0000 0.30782  0.47073  0.02081  Biso   1.000  H
  C96      1.0000 0.53948  0.64527  0.02506  Biso   1.000  C
  H91      1.0000 0.39912  0.59674  0.00091  Biso   1.000  H
  H92      1.0000 0.63880  0.81997  0.06831  Biso   1.000  H
  H93      1.0000 0.75163  0.84035  0.08481  Biso   1.000  H
  H94      1.0000 0.67187  0.79064  0.10990  Biso   1.000  H
  H95      1.0000 0.81944  0.49750  0.01561  Biso   1.000  H
  O24      1.0000 0.56201  0.71160  0.99997  Biso   1.000  O
  H96      1.0000 0.51759  0.70576  0.98171  Biso   1.000  H
  O25      1.0000 0.15809  0.54322  0.70123  Biso   1.000  O
  H97      1.0000 0.11415  0.53681  0.68270  Biso   1.000  H
  C97      1.0000 0.13098  0.48400  0.72842  Biso   1.000  C
  C98      1.0000 0.18990  0.49352  0.76493  Biso   1.000  C
  C99      1.0000 0.04801  0.41624  0.71994  Biso   1.000  C
  C100     1.0000 0.28441  0.56434  0.77225  Biso   1.000  C
  C101     1.0000 0.16120  0.43371  0.79242  Biso   1.000  C
  H98      1.0000 0.01028  0.40969  0.69531  Biso   1.000  H
  C102     1.0000 0.02150  0.35824  0.74825  Biso   1.000  C
  C103     1.0000 0.31666  0.59479  0.81693  Biso   1.000  C
  C104     1.0000 0.36686  0.52468  0.74755  Biso   1.000  C
  H99      1.0000 0.26877  0.62029  0.76122  Biso   1.000  H
  C105     1.0000 0.07760  0.36592  0.78543  Biso   1.000  C
  H100     1.0000 0.19982  0.43927  0.81681  Biso   1.000  H
  O26      1.0000 0.93925  0.29162  0.74084  Biso   1.000  O
  C106     1.0000 0.26619  0.65864  0.84074  Biso   1.000  C
  C107     1.0000 0.39878  0.56395  0.83582  Biso   1.000  C
  H101     1.0000 0.42657  0.56881  0.75181  Biso   1.000  H
  H102     1.0000 0.38062  0.46690  0.75612  Biso   1.000  H
  H103     1.0000 0.34501  0.51338  0.71921  Biso   1.000  H
  C108     1.0000 0.04702  0.30110  0.81599  Biso   1.000  C
  H104     1.0000 0.90666  0.29941  0.72040  Biso   1.000  H
  O27      1.0000 0.18489  0.69046  0.82328  Biso   1.000  O
  C109     1.0000 0.29737  0.69013  0.88126  Biso   1.000  C
  C110     1.0000 0.43363  0.59390  0.87628  Biso   1.000  C
  H105     1.0000 0.43252  0.52063  0.82042  Biso   1.000  H
  C111     1.0000 0.07577  0.20338  0.80144  Biso   1.000  C
  C112     1.0000 0.08948  0.34126  0.85894  Biso   1.000  C
  H106     1.0000 0.97369  0.29518  0.81611  Biso   1.000  H
  H107     1.0000 0.16724  0.73611  0.83722  Biso   1.000  H
  C113     1.0000 0.38097  0.65824  0.89873  Biso   1.000  C
  H108     1.0000 0.26263  0.73240  0.89682  Biso   1.000  H
  C114     1.0000 0.52582  0.56036  0.89518  Biso   1.000  C
  H109     1.0000 0.05640  0.16240  0.82061  Biso   1.000  H
  H110     1.0000 0.04188  0.17911  0.77541  Biso   1.000  H
  H111     1.0000 0.14698  0.20752  0.79922  Biso   1.000  H
  C115     1.0000 0.16514  0.30402  0.87893  Biso   1.000  C
  C116     1.0000 0.05479  0.42019  0.87978  Biso   1.000  C
  O28      1.0000 0.41254  0.69109  0.93861  Biso   1.000  O
  C117     1.0000 0.59409  0.52044  0.86319  Biso   1.000  C
  H112     1.0000 0.56492  0.61519  0.91161  Biso   1.000  H
  C118     1.0000 0.50111  0.48891  0.92342  Biso   1.000  C
  H113     1.0000 0.18951  0.25159  0.86541  Biso   1.000  H
  C119     1.0000 0.20674  0.34059  0.91796  Biso   1.000  C
  C120     1.0000 0.09580  0.46017  0.91844  Biso   1.000  C
  O29      1.0000 0.97953  0.45868  0.86176  Biso   1.000  O
  H114     1.0000 0.38026  0.73616  0.94672  Biso   1.000  H
  H115     1.0000 0.65094  0.50052  0.87650  Biso   1.000  H
  H116     1.0000 0.55731  0.46800  0.84570  Biso   1.000  H
  H117     1.0000 0.61671  0.56800  0.84740  Biso   1.000  H
  C121     1.0000 0.57185  0.47721  0.95389  Biso   1.000  C
  C122     1.0000 0.41053  0.43048  0.91966  Biso   1.000  C
  C123     1.0000 0.17053  0.42008  0.93740  Biso   1.000  C
  C124     1.0000 0.28966  0.29847  0.93904  Biso   1.000  C
  H118     1.0000 0.07310  0.51378  0.93160  Biso   1.000  H
  H119     1.0000 0.96826  0.50814  0.87531  Biso   1.000  H
  O30      1.0000 0.66162  0.53433  0.95787  Biso   1.000  O
  C125     1.0000 0.55274  0.41059  0.97931  Biso   1.000  C
  C126     1.0000 0.38791  0.36335  0.94481  Biso   1.000  C
  H120     1.0000 0.36280  0.43651  0.89931  Biso   1.000  H
  O31      1.0000 0.20798  0.45638  0.97625  Biso   1.000  O
  C127     1.0000 0.30884  0.20312  0.91699  Biso   1.000  C
  H121     1.0000 0.26883  0.28953  0.96610  Biso   1.000  H
  H122     1.0000 0.69245  0.52941  0.97922  Biso   1.000  H
  C128     1.0000 0.46079  0.35486  0.97494  Biso   1.000  C
  H123     1.0000 0.60115  0.40340  0.99912  Biso   1.000  H
  H124     1.0000 0.18084  0.50264  0.98442  Biso   1.000  H
  H125     1.0000 0.36148  0.18024  0.93172  Biso   1.000  H
  H126     1.0000 0.24872  0.15979  0.91522  Biso   1.000  H
  H127     1.0000 0.32840  0.20949  0.89010  Biso   1.000  H
  O32      1.0000 0.43826  0.28854  0.00006  Biso   1.000  O
  H128     1.0000 0.48268  0.29438  0.01832  Biso   1.000  H
