data_image0
_cell_length_a       10.07
_cell_length_b       10.403
_cell_length_c       12.774
_cell_angle_alpha    70.85
_cell_angle_beta     79.6
_cell_angle_gamma    89

_symmetry_space_group_name_H-M    "P 1"
_symmetry_int_tables_number       1

loop_
  _symmetry_equiv_pos_as_xyz
  'x, y, z'

loop_
  _atom_site_label
  _atom_site_occupancy
  _atom_site_fract_x
  _atom_site_fract_y
  _atom_site_fract_z
  _atom_site_thermal_displace_type
  _atom_site_B_iso_or_equiv
  _atom_site_type_symbol
  N1       1.0000 0.63493  0.32504  0.53438  Biso   1.000  N
  C1       1.0000 0.54060  0.26073  0.50208  Biso   1.000  C
  C2       1.0000 0.74620  0.39844  0.44946  Biso   1.000  C
  C3       1.0000 0.60777  0.35110  0.64181  Biso   1.000  C
  N2       1.0000 0.53384  0.30957  0.39245  Biso   1.000  N
  C4       1.0000 0.45050  0.15186  0.57974  Biso   1.000  C
  C5       1.0000 0.83172  0.32704  0.39254  Biso   1.000  C
  C6       1.0000 0.77065  0.53713  0.42500  Biso   1.000  C
  H1       1.0000 0.61877  0.44696  0.62832  Biso   1.000  H
  H2       1.0000 0.51690  0.32023  0.67942  Biso   1.000  H
  H3       1.0000 0.66980  0.30295  0.68827  Biso   1.000  H
  C7       1.0000 0.43652  0.26576  0.35215  Biso   1.000  C
  C8       1.0000 0.35088  0.10854  0.53556  Biso   1.000  C
  C9       1.0000 0.46763  0.06678  0.69249  Biso   1.000  C
  H4       1.0000 0.81557  0.23404  0.40924  Biso   1.000  H
  C10      1.0000 0.94094  0.39409  0.31100  Biso   1.000  C
  C11      1.0000 0.88047  0.60266  0.34270  Biso   1.000  C
  H5       1.0000 0.71418  0.58556  0.46312  Biso   1.000  H
  N3       1.0000 0.43490  0.33226  0.23949  Biso   1.000  N
  C12      1.0000 0.33846  0.16145  0.42298  Biso   1.000  C
  H6       1.0000 0.28893  0.04026  0.58379  Biso   1.000  H
  O1       1.0000 0.56314  0.06551  0.73735  Biso   1.000  O
  H7       1.0000 0.39577  0.00614  0.73482  Biso   1.000  H
  H8       1.0000 0.99763  0.34598  0.27280  Biso   1.000  H
  C13      1.0000 0.96648  0.53292  0.28570  Biso   1.000  C
  N4       1.0000 0.90821  0.74629  0.31909  Biso   1.000  N
  C14      1.0000 0.30672  0.37382  0.20230  Biso   1.000  C
  C15      1.0000 0.55477  0.41372  0.17363  Biso   1.000  C
  C16      1.0000 0.24080  0.09262  0.38394  Biso   1.000  C
  H9       1.0000 0.04007  0.57786  0.23139  Biso   1.000  H
  C17      1.0000 0.86974  0.83650  0.22675  Biso   1.000  C
  C18      1.0000 0.99631  0.77785  0.38723  Biso   1.000  C
  H10      1.0000 0.27814  0.31116  0.16899  Biso   1.000  H
  H11      1.0000 0.23931  0.37389  0.26597  Biso   1.000  H
  H12      1.0000 0.31858  0.46366  0.14774  Biso   1.000  H
  C19      1.0000 0.67169  0.34969  0.14858  Biso   1.000  C
  C20      1.0000 0.55405  0.55523  0.13872  Biso   1.000  C
  O2       1.0000 0.15499  0.00927  0.44777  Biso   1.000  O
  H13      1.0000 0.24510  0.11383  0.30669  Biso   1.000  H
  N5       1.0000 0.79289  0.77875  0.17658  Biso   1.000  N
  C21      1.0000 0.90393  0.98000  0.18324  Biso   1.000  C
  H14      1.0000 0.95072  0.83455  0.42703  Biso   1.000  H
  H15      1.0000 0.07759  0.82494  0.33908  Biso   1.000  H
  H16      1.0000 0.01869  0.69479  0.44044  Biso   1.000  H
  C22      1.0000 0.78952  0.42703  0.09065  Biso   1.000  C
  H17      1.0000 0.67165  0.25509  0.17051  Biso   1.000  H
  C23      1.0000 0.67250  0.63185  0.08163  Biso   1.000  C
  H18      1.0000 0.47463  0.59828  0.15347  Biso   1.000  H
  C24      1.0000 0.75241  0.85026  0.08146  Biso   1.000  C
  C25      1.0000 0.86347  0.05028  0.08205  Biso   1.000  C
  C26      1.0000 0.98066  0.06007  0.22954  Biso   1.000  C
  C27      1.0000 0.79085  0.56786  0.05768  Biso   1.000  C
  H19      1.0000 0.86822  0.38393  0.07387  Biso   1.000  H
  N6       1.0000 0.67209  0.77782  0.04157  Biso   1.000  N
  C28      1.0000 0.78958  0.99185  0.02682  Biso   1.000  C
  H20      1.0000 0.88775  0.14262  0.04942  Biso   1.000  H
  H21      1.0000 0.99157  0.02263  0.30408  Biso   1.000  H
  O3       1.0000 0.03093  0.17327  0.17498  Biso   1.000  O
  H22      1.0000 0.87030  0.61922  0.01982  Biso   1.000  H
  C29      1.0000 0.56447  0.83670  0.98389  Biso   1.000  C
  C30      1.0000 0.77233  0.07412  0.91222  Biso   1.000  C
  H23      1.0000 0.47973  0.79394  0.02817  Biso   1.000  H
  H24      1.0000 0.57791  0.82310  0.91196  Biso   1.000  H
  H25      1.0000 0.56404  0.93247  0.97302  Biso   1.000  H
  O4       1.0000 0.79225  0.19698  0.87368  Biso   1.000  O
  H26      1.0000 0.74476  0.02957  0.86702  Biso   1.000  H
  N7       1.0000 0.36511  0.67493  0.46565  Biso   1.000  N
  C31      1.0000 0.25374  0.60152  0.55057  Biso   1.000  C
  C32      1.0000 0.45944  0.73924  0.49795  Biso   1.000  C
  C33      1.0000 0.39217  0.64886  0.35822  Biso   1.000  C
  C34      1.0000 0.22930  0.46274  0.57502  Biso   1.000  C
  C35      1.0000 0.16832  0.67293  0.60749  Biso   1.000  C
  N8       1.0000 0.46620  0.69040  0.60757  Biso   1.000  N
  C36      1.0000 0.54954  0.84810  0.42028  Biso   1.000  C
  H27      1.0000 0.38118  0.55301  0.37171  Biso   1.000  H
  H28      1.0000 0.48315  0.67964  0.32061  Biso   1.000  H
  H29      1.0000 0.33026  0.69696  0.31167  Biso   1.000  H
  C37      1.0000 0.11957  0.39731  0.65732  Biso   1.000  C
  H30      1.0000 0.28577  0.41441  0.53691  Biso   1.000  H
  C38      1.0000 0.05910  0.60588  0.68903  Biso   1.000  C
  H31      1.0000 0.18437  0.76593  0.59079  Biso   1.000  H
  C39      1.0000 0.56353  0.73421  0.64788  Biso   1.000  C
  C40      1.0000 0.64917  0.89142  0.46447  Biso   1.000  C
  C41      1.0000 0.53241  0.93319  0.30754  Biso   1.000  C
  N9       1.0000 0.09183  0.25358  0.68094  Biso   1.000  N
  C42      1.0000 0.03356  0.46705  0.71433  Biso   1.000  C
  H32      1.0000 0.00241  0.65399  0.72723  Biso   1.000  H
  N10      1.0000 0.56514  0.66771  0.76054  Biso   1.000  N
  C43      1.0000 0.66160  0.83855  0.57696  Biso   1.000  C
  H33      1.0000 0.71112  0.95971  0.41623  Biso   1.000  H
  O5       1.0000 0.43690  0.93446  0.26268  Biso   1.000  O
  H34      1.0000 0.60427  0.99382  0.26521  Biso   1.000  H
  C44      1.0000 0.00373  0.22212  0.61280  Biso   1.000  C
  C45      1.0000 0.13031  0.16347  0.77327  Biso   1.000  C
  H35      1.0000 0.95987  0.42211  0.76863  Biso   1.000  H
  C46      1.0000 0.44528  0.58625  0.82640  Biso   1.000  C
  C47      1.0000 0.69333  0.62614  0.79773  Biso   1.000  C
  C48      1.0000 0.75924  0.90735  0.61609  Biso   1.000  C
  H36      1.0000 0.04932  0.16542  0.57300  Biso   1.000  H
  H37      1.0000 0.92235  0.17503  0.66095  Biso   1.000  H
  H38      1.0000 0.98135  0.30518  0.55959  Biso   1.000  H
  N11      1.0000 0.20705  0.22122  0.82345  Biso   1.000  N
  C49      1.0000 0.09602  0.01997  0.81679  Biso   1.000  C
  C50      1.0000 0.44589  0.44474  0.86131  Biso   1.000  C
  C51      1.0000 0.32826  0.65028  0.85144  Biso   1.000  C
  H39      1.0000 0.72191  0.68880  0.83104  Biso   1.000  H
  H40      1.0000 0.76076  0.62611  0.73398  Biso   1.000  H
  H41      1.0000 0.68136  0.53630  0.85229  Biso   1.000  H
  O6       1.0000 0.84505  0.99070  0.55225  Biso   1.000  O
  H42      1.0000 0.75495  0.88614  0.69333  Biso   1.000  H
  C52      1.0000 0.24765  0.14975  0.91848  Biso   1.000  C
  C53      1.0000 0.13648  0.94969  0.91798  Biso   1.000  C
  C54      1.0000 0.01938  0.93990  0.77049  Biso   1.000  C
  C55      1.0000 0.32755  0.36811  0.91840  Biso   1.000  C
  H43      1.0000 0.52542  0.40169  0.84655  Biso   1.000  H
  C56      1.0000 0.21043  0.57294  0.90938  Biso   1.000  C
  H44      1.0000 0.32839  0.74488  0.82952  Biso   1.000  H
  N12      1.0000 0.32796  0.22215  0.95845  Biso   1.000  N
  C57      1.0000 0.21046  0.00811  0.97321  Biso   1.000  C
  H45      1.0000 0.11230  0.85735  0.95061  Biso   1.000  H
  O7       1.0000 0.96911  0.82670  0.82505  Biso   1.000  O
  H46      1.0000 0.00847  0.97734  0.69595  Biso   1.000  H
  C58      1.0000 0.20919  0.43211  0.94235  Biso   1.000  C
  H47      1.0000 0.13184  0.61608  0.92607  Biso   1.000  H
  C59      1.0000 0.43547  0.16327  0.01613  Biso   1.000  C
  C60      1.0000 0.22773  0.92588  0.08773  Biso   1.000  C
  H48      1.0000 0.12965  0.38075  0.98021  Biso   1.000  H
  H49      1.0000 0.52033  0.20606  0.97178  Biso   1.000  H
  H50      1.0000 0.42213  0.17687  0.08806  Biso   1.000  H
  H51      1.0000 0.43600  0.06750  0.02701  Biso   1.000  H
  O8       1.0000 0.20779  0.80298  0.12635  Biso   1.000  O
  H52      1.0000 0.25528  0.97040  0.13301  Biso   1.000  H
