data_image0
_cell_length_a       7.817
_cell_length_b       15.035
_cell_length_c       15.622
_cell_angle_alpha    78.69
_cell_angle_beta     75.77
_cell_angle_gamma    75.02

_symmetry_space_group_name_H-M    "P 1"
_symmetry_int_tables_number       1

loop_
  _symmetry_equiv_pos_as_xyz
  'x, y, z'

loop_
  _atom_site_label
  _atom_site_occupancy
  _atom_site_fract_x
  _atom_site_fract_y
  _atom_site_fract_z
  _atom_site_thermal_displace_type
  _atom_site_B_iso_or_equiv
  _atom_site_type_symbol
  C1       1.0000 0.64006  0.34073  0.51547  Biso   1.000  C
  C2       1.0000 0.54174  0.27541  0.49579  Biso   1.000  C
  C3       1.0000 0.36275  0.30839  0.48459  Biso   1.000  C
  C4       1.0000 0.62706  0.18217  0.48652  Biso   1.000  C
  C5       1.0000 0.26953  0.24992  0.46791  Biso   1.000  C
  C6       1.0000 0.26501  0.40928  0.48952  Biso   1.000  C
  C7       1.0000 0.52896  0.12522  0.46938  Biso   1.000  C
  C8       1.0000 0.82529  0.14113  0.49172  Biso   1.000  C
  C9       1.0000 0.35285  0.15771  0.46010  Biso   1.000  C
  S1       1.0000 0.18313  0.44027  0.60193  Biso   1.000  S
  S2       1.0000 0.87468  0.11911  0.60173  Biso   1.000  S
  C10      1.0000 0.01596  0.37138  0.64789  Biso   1.000  C
  C11      1.0000 0.76001  0.02642  0.65683  Biso   1.000  C
  C12      1.0000 0.01797  0.33292  0.74703  Biso   1.000  C
  C13      1.0000 0.67297  0.04050  0.75363  Biso   1.000  C
  C14      1.0000 0.18550  0.25473  0.75570  Biso   1.000  C
  C15      1.0000 0.50050  0.11503  0.75897  Biso   1.000  C
  C16      1.0000 0.19115  0.16677  0.74102  Biso   1.000  C
  C17      1.0000 0.33503  0.27273  0.77371  Biso   1.000  C
  C18      1.0000 0.34698  0.09723  0.74289  Biso   1.000  C
  C19      1.0000 0.49406  0.20332  0.77518  Biso   1.000  C
  C20      1.0000 0.36002  0.65926  0.48452  Biso   1.000  C
  C21      1.0000 0.45834  0.72459  0.50420  Biso   1.000  C
  C22      1.0000 0.37302  0.81782  0.51347  Biso   1.000  C
  C23      1.0000 0.63733  0.69161  0.51541  Biso   1.000  C
  C24      1.0000 0.17463  0.85894  0.50827  Biso   1.000  C
  C25      1.0000 0.47099  0.87478  0.53062  Biso   1.000  C
  C26      1.0000 0.73042  0.75008  0.53208  Biso   1.000  C
  C27      1.0000 0.73494  0.59071  0.51047  Biso   1.000  C
  S3       1.0000 0.12524  0.88088  0.39833  Biso   1.000  S
  C28      1.0000 0.64710  0.84229  0.53989  Biso   1.000  C
  S4       1.0000 0.81693  0.55972  0.39813  Biso   1.000  S
  C29      1.0000 0.23992  0.97357  0.34323  Biso   1.000  C
  C30      1.0000 0.98400  0.62862  0.35210  Biso   1.000  C
  C31      1.0000 0.32696  0.95949  0.24643  Biso   1.000  C
  C32      1.0000 0.98198  0.66708  0.25297  Biso   1.000  C
  C33      1.0000 0.49945  0.88496  0.24103  Biso   1.000  C
  C34      1.0000 0.81455  0.74533  0.24429  Biso   1.000  C
  C35      1.0000 0.65294  0.90283  0.25710  Biso   1.000  C
  C36      1.0000 0.50602  0.79668  0.22481  Biso   1.000  C
  C37      1.0000 0.80893  0.83322  0.25897  Biso   1.000  C
  C38      1.0000 0.66502  0.72733  0.22628  Biso   1.000  C
  C39      1.0000 0.44204  0.53889  0.74823  Biso   1.000  C
  S5       1.0000 0.26930  0.51619  0.84369  Biso   1.000  S
  C40      1.0000 0.61896  0.53572  0.77618  Biso   1.000  C
  C41      1.0000 0.07738  0.60838  0.82127  Biso   1.000  C
  C42      1.0000 0.60409  0.61401  0.82748  Biso   1.000  C
  C43      1.0000 0.08796  0.70517  0.83121  Biso   1.000  C
  C44      1.0000 0.58927  0.70519  0.78438  Biso   1.000  C
  C45      1.0000 0.60225  0.59729  0.91740  Biso   1.000  C
  C46      1.0000 0.11793  0.76863  0.75390  Biso   1.000  C
  C47      1.0000 0.05956  0.73392  0.91487  Biso   1.000  C
  C48      1.0000 0.57098  0.77650  0.83121  Biso   1.000  C
  C49      1.0000 0.58578  0.67023  0.96437  Biso   1.000  C
  C50      1.0000 0.11904  0.85900  0.75783  Biso   1.000  C
  C51      1.0000 0.05376  0.82681  0.91807  Biso   1.000  C
  C52      1.0000 0.03907  0.66619  0.99779  Biso   1.000  C
  C53      1.0000 0.57096  0.76041  0.92201  Biso   1.000  C
  C54      1.0000 0.08101  0.88922  0.83902  Biso   1.000  C
  C55      1.0000 0.00943  0.86511  0.00473  Biso   1.000  C
  C56      1.0000 0.54848  0.84072  0.97217  Biso   1.000  C
  S6       1.0000 0.19577  0.84098  0.06230  Biso   1.000  S
  C57      1.0000 0.35699  0.90130  0.98532  Biso   1.000  C
  C58      1.0000 0.55801  0.46110  0.25183  Biso   1.000  C
  C59      1.0000 0.38099  0.46427  0.22381  Biso   1.000  C
  S7       1.0000 0.73066  0.48381  0.15630  Biso   1.000  S
  C60      1.0000 0.39586  0.38599  0.17251  Biso   1.000  C
  C61      1.0000 0.92270  0.39161  0.17872  Biso   1.000  C
  C62      1.0000 0.41069  0.29480  0.21561  Biso   1.000  C
  C63      1.0000 0.39770  0.40271  0.08259  Biso   1.000  C
  C64      1.0000 0.91200  0.29483  0.16878  Biso   1.000  C
  C65      1.0000 0.42897  0.22350  0.16878  Biso   1.000  C
  C66      1.0000 0.41418  0.32977  0.03562  Biso   1.000  C
  C67      1.0000 0.88199  0.23143  0.24610  Biso   1.000  C
  C68      1.0000 0.94040  0.26608  0.08512  Biso   1.000  C
  C69      1.0000 0.42899  0.23959  0.07798  Biso   1.000  C
  C70      1.0000 0.88102  0.14098  0.24223  Biso   1.000  C
  C71      1.0000 0.94632  0.17319  0.08192  Biso   1.000  C
  C72      1.0000 0.96102  0.33381  0.00220  Biso   1.000  C
  C73      1.0000 0.45147  0.15928  0.02782  Biso   1.000  C
  C74      1.0000 0.91894  0.11077  0.16097  Biso   1.000  C
  C75      1.0000 0.99063  0.13488  0.99533  Biso   1.000  C
  C76      1.0000 0.64297  0.09870  0.01468  Biso   1.000  C
  S8       1.0000 0.80431  0.15902  0.93769  Biso   1.000  S
