data_image0
_cell_length_a       16.4
_cell_length_b       17.572
_cell_length_c       19.16
_cell_angle_alpha    114.99
_cell_angle_beta     91.38
_cell_angle_gamma    116.8

_symmetry_space_group_name_H-M    "P 1"
_symmetry_int_tables_number       1

loop_
  _symmetry_equiv_pos_as_xyz
  'x, y, z'

loop_
  _atom_site_label
  _atom_site_occupancy
  _atom_site_fract_x
  _atom_site_fract_y
  _atom_site_fract_z
  _atom_site_thermal_displace_type
  _atom_site_B_iso_or_equiv
  _atom_site_type_symbol
  O1       1.0000 0.55869  0.27591  0.67091  Biso   1.000  O
  C1       1.0000 0.58290  0.20670  0.66076  Biso   1.000  C
  C2       1.0000 0.57014  0.33231  0.74861  Biso   1.000  C
  C3       1.0000 0.50840  0.11033  0.64081  Biso   1.000  C
  C4       1.0000 0.66951  0.21890  0.64499  Biso   1.000  C
  C5       1.0000 0.67881  0.23102  0.67199  Biso   1.000  C
  C6       1.0000 0.48667  0.35067  0.75655  Biso   1.000  C
  H1       1.0000 0.62949  0.39372  0.76981  Biso   1.000  H
  H2       1.0000 0.57173  0.29991  0.77847  Biso   1.000  H
  C7       1.0000 0.40804  0.09045  0.64201  Biso   1.000  C
  C8       1.0000 0.53669  0.04053  0.62546  Biso   1.000  C
  C9       1.0000 0.69662  0.15291  0.64177  Biso   1.000  C
  C10      1.0000 0.74060  0.31422  0.65950  Biso   1.000  C
  C11      1.0000 0.75297  0.33310  0.70800  Biso   1.000  C
  O2       1.0000 0.39873  0.26194  0.73219  Biso   1.000  O
  H3       1.0000 0.49728  0.39668  0.81167  Biso   1.000  H
  H4       1.0000 0.48340  0.37950  0.72388  Biso   1.000  H
  C12      1.0000 0.33354  0.98515  0.58228  Biso   1.000  C
  C13      1.0000 0.39911  0.12192  0.72281  Biso   1.000  C
  H5       1.0000 0.39913  0.13184  0.62451  Biso   1.000  H
  C14      1.0000 0.62641  0.05761  0.62576  Biso   1.000  C
  H6       1.0000 0.49025  0.97823  0.61447  Biso   1.000  H
  O3       1.0000 0.78565  0.17025  0.63681  Biso   1.000  O
  C15      1.0000 0.80303  0.39493  0.68196  Biso   1.000  C
  C16      1.0000 0.80300  0.41919  0.73696  Biso   1.000  C
  C17      1.0000 0.39200  0.20550  0.76850  Biso   1.000  C
  C18      1.0000 0.22685  0.94089  0.56700  Biso   1.000  C
  H7       1.0000 0.34648  0.97468  0.53086  Biso   1.000  H
  H8       1.0000 0.34808  0.94489  0.59620  Biso   1.000  H
  C19      1.0000 0.38621  0.06634  0.76348  Biso   1.000  C
  C20      1.0000 0.65304  0.98098  0.60599  Biso   1.000  C
  C21      1.0000 0.84732  0.20852  0.71080  Biso   1.000  C
  I1       1.0000 0.90877  0.52127  0.69558  Biso   1.000  I
  I2       1.0000 0.87622  0.56579  0.78731  Biso   1.000  I
  C22      1.0000 0.38084  0.23452  0.84667  Biso   1.000  C
  C23      1.0000 0.19602  0.00694  0.56096  Biso   1.000  C
  H9       1.0000 0.19599  0.87900  0.51779  Biso   1.000  H
  H10      1.0000 0.20729  0.92767  0.61017  Biso   1.000  H
  C24      1.0000 0.37031  0.08791  0.83759  Biso   1.000  C
  H11      1.0000 0.38890  0.00972  0.73660  Biso   1.000  H
  C25      1.0000 0.69377  0.98882  0.68566  Biso   1.000  C
  H12      1.0000 0.70344  0.99425  0.57870  Biso   1.000  H
  C26      1.0000 0.57045  0.87796  0.55087  Biso   1.000  C
  C27      1.0000 0.90673  0.15871  0.69767  Biso   1.000  C
  H13      1.0000 0.81079  0.19689  0.74795  Biso   1.000  H
  H14      1.0000 0.88873  0.27829  0.73320  Biso   1.000  H
  C28      1.0000 0.36519  0.17399  0.88125  Biso   1.000  C
  C29      1.0000 0.37173  0.31898  0.88889  Biso   1.000  C
  H15      1.0000 0.21844  0.02387  0.52071  Biso   1.000  H
  H16      1.0000 0.22262  0.06721  0.61197  Biso   1.000  H
  C30      1.0000 0.08793  0.95688  0.54096  Biso   1.000  C
  C31      1.0000 0.35251  0.01919  0.87158  Biso   1.000  C
  C32      1.0000 0.79034  0.02741  0.71170  Biso   1.000  C
  C33      1.0000 0.63466  0.95384  0.72848  Biso   1.000  C
  H17      1.0000 0.51557  0.87069  0.57171  Biso   1.000  H
  H18      1.0000 0.55592  0.87224  0.49897  Biso   1.000  H
  C34      1.0000 0.58297  0.79288  0.53899  Biso   1.000  C
  O4       1.0000 0.84793  0.05482  0.66697  Biso   1.000  O
  H19      1.0000 0.94292  0.17066  0.66040  Biso   1.000  H
  H20      1.0000 0.95114  0.18700  0.74795  Biso   1.000  H
  O5       1.0000 0.34322  0.19211  0.94868  Biso   1.000  O
  C35      1.0000 0.36338  0.38757  0.92479  Biso   1.000  C
  H21      1.0000 0.06836  0.99515  0.52776  Biso   1.000  H
  H22      1.0000 0.06105  0.89340  0.49390  Biso   1.000  H
  C36      1.0000 0.04899  0.94590  0.60898  Biso   1.000  C
  H23      1.0000 0.32909  0.04119  0.91846  Biso   1.000  H
  C37      1.0000 0.44762  0.02979  0.90150  Biso   1.000  C
  C38      1.0000 0.27627  0.91424  0.81341  Biso   1.000  C
  C39      1.0000 0.82597  0.02944  0.78157  Biso   1.000  C
  H24      1.0000 0.57024  0.92967  0.71116  Biso   1.000  H
  C40      1.0000 0.66575  0.95286  0.79477  Biso   1.000  C
  H25      1.0000 0.59941  0.79719  0.58969  Biso   1.000  H
  H26      1.0000 0.52484  0.73167  0.50566  Biso   1.000  H
  C41      1.0000 0.66197  0.79989  0.49802  Biso   1.000  C
  C42      1.0000 0.41892  0.26911  0.01897  Biso   1.000  C
  I3       1.0000 0.34945  0.50234  0.99263  Biso   1.000  I
  H27      1.0000 0.08042  0.00775  0.65759  Biso   1.000  H
  C43      1.0000 0.94297  0.90689  0.58599  Biso   1.000  C
  H28      1.0000 0.06074  0.90018  0.61758  Biso   1.000  H
  C44      1.0000 0.50463  0.10641  0.97919  Biso   1.000  C
  C45      1.0000 0.48055  0.97134  0.85820  Biso   1.000  C
  H29      1.0000 0.29526  0.89152  0.76455  Biso   1.000  H
  H30      1.0000 0.27036  0.87302  0.83646  Biso   1.000  H
  C46      1.0000 0.18084  0.90503  0.79358  Biso   1.000  C
  C47      1.0000 0.92504  0.06632  0.80666  Biso   1.000  C
  C48      1.0000 0.76245  0.99033  0.82087  Biso   1.000  C
  C49      1.0000 0.59807  0.90996  0.83586  Biso   1.000  C
  H31      1.0000 0.72205  0.85386  0.53636  Biso   1.000  H
  H32      1.0000 0.65296  0.81350  0.45550  Biso   1.000  H
  C50      1.0000 0.66898  0.70788  0.46296  Biso   1.000  C
  H33      1.0000 0.39538  0.27207  0.06555  Biso   1.000  H
  H34      1.0000 0.43860  0.33060  0.01998  Biso   1.000  H
  C51      1.0000 0.50512  0.25712  0.02476  Biso   1.000  C
  H35      1.0000 0.93089  0.93469  0.55696  Biso   1.000  H
  H36      1.0000 0.92197  0.92336  0.63376  Biso   1.000  H
  H37      1.0000 0.91026  0.83678  0.55356  Biso   1.000  H
  O6       1.0000 0.47245  0.16460  0.02518  Biso   1.000  O
  C52      1.0000 0.59279  0.12127  0.00995  Biso   1.000  C
  C53      1.0000 0.56355  0.97775  0.88555  Biso   1.000  C
  H38      1.0000 0.44477  0.92328  0.80618  Biso   1.000  H
  H39      1.0000 0.17164  0.94473  0.84267  Biso   1.000  H
  H40      1.0000 0.18347  0.93234  0.75846  Biso   1.000  H
  C54      1.0000 0.09496  0.80284  0.75500  Biso   1.000  C
  C55      1.0000 0.00542  0.09591  0.83431  Biso   1.000  C
  O7       1.0000 0.79616  0.98588  0.88400  Biso   1.000  O
  H41      1.0000 0.63447  0.90572  0.87408  Biso   1.000  H
  C56      1.0000 0.51880  0.80559  0.77931  Biso   1.000  C
  H42      1.0000 0.61419  0.65758  0.41739  Biso   1.000  H
  H43      1.0000 0.72434  0.72120  0.44242  Biso   1.000  H
  C57      1.0000 0.67393  0.66286  0.51498  Biso   1.000  C
  H44      1.0000 0.53094  0.25552  0.97949  Biso   1.000  H
  H45      1.0000 0.55411  0.31088  0.07337  Biso   1.000  H
  C58      1.0000 0.61845  0.05429  0.96098  Biso   1.000  C
  C59      1.0000 0.65320  0.20147  0.08627  Biso   1.000  C
  H46      1.0000 0.09308  0.77116  0.78576  Biso   1.000  H
  H47      1.0000 0.09647  0.76404  0.70119  Biso   1.000  H
  C60      1.0000 0.00896  0.81590  0.75100  Biso   1.000  C
  I4       1.0000 0.14191  0.14492  0.88029  Biso   1.000  I
  C61      1.0000 0.84536  0.07831  0.96116  Biso   1.000  C
  H48      1.0000 0.47561  0.78238  0.80887  Biso   1.000  H
  H49      1.0000 0.48347  0.80543  0.73786  Biso   1.000  H
  C62      1.0000 0.55465  0.73564  0.74049  Biso   1.000  C
  H50      1.0000 0.61299  0.63557  0.52519  Biso   1.000  H
  H51      1.0000 0.71957  0.71576  0.56538  Biso   1.000  H
  C63      1.0000 0.70099  0.58486  0.48398  Biso   1.000  C
  O8       1.0000 0.69966  0.06181  0.99418  Biso   1.000  O
  C64      1.0000 0.70578  0.27246  0.15125  Biso   1.000  C
  C65      1.0000 0.96799  0.83785  0.82296  Biso   1.000  C
  H52      1.0000 0.95849  0.75628  0.70680  Biso   1.000  H
  H53      1.0000 0.02527  0.86743  0.73846  Biso   1.000  H
  C66      1.0000 0.78707  0.12873  0.98630  Biso   1.000  C
  H54      1.0000 0.90501  0.12250  0.95698  Biso   1.000  H
  H55      1.0000 0.85937  0.06462  0.00248  Biso   1.000  H
  H56      1.0000 0.56967  0.73835  0.69259  Biso   1.000  H
  H57      1.0000 0.61346  0.75984  0.77668  Biso   1.000  H
  C67      1.0000 0.48996  0.62924  0.71696  Biso   1.000  C
  H58      1.0000 0.64897  0.52444  0.47670  Biso   1.000  H
  H59      1.0000 0.75537  0.60419  0.52226  Biso   1.000  H
  H60      1.0000 0.71629  0.57550  0.43412  Biso   1.000  H
  I5       1.0000 0.78211  0.37413  0.25797  Biso   1.000  I
  I6       1.0000 0.80524  0.40611  0.22740  Biso   1.000  I
  H61      1.0000 0.96217  0.79717  0.84649  Biso   1.000  H
  C68      1.0000 0.87200  0.81187  0.78098  Biso   1.000  C
  H62      1.0000 0.00489  0.90608  0.86339  Biso   1.000  H
  H63      1.0000 0.77348  0.14446  0.94617  Biso   1.000  H
  H64      1.0000 0.82205  0.18884  0.03671  Biso   1.000  H
  H65      1.0000 0.43771  0.59867  0.67187  Biso   1.000  H
  H66      1.0000 0.46450  0.62467  0.76151  Biso   1.000  H
  C69      1.0000 0.54696  0.57686  0.69701  Biso   1.000  C
  H67      1.0000 0.82300  0.77255  0.79800  Biso   1.000  H
  H68      1.0000 0.86078  0.77590  0.72430  Biso   1.000  H
  H69      1.0000 0.87056  0.87044  0.79459  Biso   1.000  H
  H70      1.0000 0.49738  0.50936  0.67467  Biso   1.000  H
  H71      1.0000 0.56508  0.58336  0.65067  Biso   1.000  H
  C70      1.0000 0.62995  0.58085  0.73696  Biso   1.000  C
  H72      1.0000 0.61632  0.56016  0.77668  Biso   1.000  H
  H73      1.0000 0.68699  0.64456  0.75990  Biso   1.000  H
  C71      1.0000 0.63798  0.50586  0.66297  Biso   1.000  C
  H74      1.0000 0.63976  0.52259  0.62098  Biso   1.000  H
  H75      1.0000 0.58387  0.44209  0.64511  Biso   1.000  H
  H76      1.0000 0.69472  0.50569  0.67569  Biso   1.000  H
  O9       1.0000 0.44125  0.72395  0.32907  Biso   1.000  O
  C72      1.0000 0.41705  0.79315  0.33922  Biso   1.000  C
  C73      1.0000 0.42987  0.66754  0.25137  Biso   1.000  C
  C74      1.0000 0.33050  0.78095  0.35498  Biso   1.000  C
  C75      1.0000 0.32114  0.76883  0.32799  Biso   1.000  C
  C76      1.0000 0.49154  0.88953  0.35916  Biso   1.000  C
  H77      1.0000 0.37046  0.60613  0.23017  Biso   1.000  H
  H78      1.0000 0.42828  0.69995  0.22151  Biso   1.000  H
  C77      1.0000 0.51326  0.64915  0.24336  Biso   1.000  C
  C78      1.0000 0.25935  0.68564  0.34047  Biso   1.000  C
  C79      1.0000 0.24697  0.66676  0.29198  Biso   1.000  C
  C80      1.0000 0.30338  0.84694  0.35821  Biso   1.000  C
  C81      1.0000 0.46325  0.95932  0.37451  Biso   1.000  C
  C82      1.0000 0.59197  0.90941  0.35797  Biso   1.000  C
  O10      1.0000 0.60128  0.73792  0.26779  Biso   1.000  O
  H79      1.0000 0.50267  0.60317  0.18830  Biso   1.000  H
  H80      1.0000 0.51661  0.62036  0.27609  Biso   1.000  H
  C83      1.0000 0.19698  0.60493  0.31802  Biso   1.000  C
  C84      1.0000 0.19700  0.58066  0.26301  Biso   1.000  C
  O11      1.0000 0.21435  0.82961  0.36317  Biso   1.000  O
  C85      1.0000 0.37360  0.94225  0.37421  Biso   1.000  C
  H81      1.0000 0.50973  0.02156  0.38550  Biso   1.000  H
  C86      1.0000 0.60083  0.87794  0.27717  Biso   1.000  C
  H82      1.0000 0.60088  0.86802  0.37547  Biso   1.000  H
  C87      1.0000 0.66641  0.01471  0.41769  Biso   1.000  C
  C88      1.0000 0.60795  0.79436  0.23148  Biso   1.000  C
  I7       1.0000 0.12379  0.43407  0.21267  Biso   1.000  I
  I8       1.0000 0.09117  0.47859  0.30440  Biso   1.000  I
  C89      1.0000 0.15269  0.79134  0.28917  Biso   1.000  C
  C90      1.0000 0.34690  0.01888  0.39398  Biso   1.000  C
  C91      1.0000 0.61373  0.93352  0.23650  Biso   1.000  C
  H83      1.0000 0.65352  0.02518  0.46911  Biso   1.000  H
  H84      1.0000 0.65193  0.05497  0.40378  Biso   1.000  H
  C92      1.0000 0.77310  0.05897  0.43298  Biso   1.000  C
  C93      1.0000 0.61917  0.76534  0.15331  Biso   1.000  C
  C94      1.0000 0.09328  0.84114  0.30231  Biso   1.000  C
  H85      1.0000 0.18913  0.80294  0.25196  Biso   1.000  H
  H86      1.0000 0.11125  0.72150  0.26678  Biso   1.000  H
  C95      1.0000 0.30624  0.01103  0.31431  Biso   1.000  C
  H87      1.0000 0.29650  0.00561  0.42128  Biso   1.000  H
  C96      1.0000 0.42950  0.12189  0.44911  Biso   1.000  C
  C97      1.0000 0.62964  0.91194  0.16238  Biso   1.000  C
  H88      1.0000 0.61105  0.99013  0.26337  Biso   1.000  H
  C98      1.0000 0.80398  0.99292  0.43901  Biso   1.000  C
  H89      1.0000 0.80402  0.12086  0.48219  Biso   1.000  H
  H90      1.0000 0.79272  0.07219  0.38980  Biso   1.000  H
  C99      1.0000 0.63476  0.82587  0.11873  Biso   1.000  C
  C100     1.0000 0.62828  0.68088  0.11108  Biso   1.000  C
  O12      1.0000 0.15207  0.94504  0.33301  Biso   1.000  O
  H91      1.0000 0.05703  0.82920  0.33958  Biso   1.000  H
  H92      1.0000 0.04885  0.81282  0.25196  Biso   1.000  H
  C101     1.0000 0.20967  0.97245  0.28828  Biso   1.000  C
  C102     1.0000 0.36535  0.04602  0.27149  Biso   1.000  C
  H93      1.0000 0.48438  0.12917  0.42826  Biso   1.000  H
  H94      1.0000 0.44400  0.12755  0.50100  Biso   1.000  H
  C103     1.0000 0.41704  0.20698  0.46099  Biso   1.000  C
  C104     1.0000 0.64743  0.98067  0.12840  Biso   1.000  C
  H95      1.0000 0.78157  0.97599  0.47926  Biso   1.000  H
  H96      1.0000 0.77739  0.93264  0.38801  Biso   1.000  H
  C105     1.0000 0.91200  0.04294  0.45896  Biso   1.000  C
  O13      1.0000 0.65673  0.80775  0.05130  Biso   1.000  O
  C106     1.0000 0.63657  0.61228  0.07519  Biso   1.000  C
  C107     1.0000 0.17404  0.97041  0.21840  Biso   1.000  C
  H97      1.0000 0.42971  0.07019  0.28881  Biso   1.000  H
  C108     1.0000 0.33420  0.04700  0.20520  Biso   1.000  C
  H98      1.0000 0.40060  0.20267  0.41029  Biso   1.000  H
  H99      1.0000 0.47510  0.26818  0.49431  Biso   1.000  H
  C109     1.0000 0.33804  0.19997  0.50196  Biso   1.000  C
  H100     1.0000 0.67085  0.95867  0.08152  Biso   1.000  H
  C110     1.0000 0.55238  0.97007  0.09848  Biso   1.000  C
  C111     1.0000 0.72373  0.08562  0.18657  Biso   1.000  C
  H101     1.0000 0.93165  0.00471  0.47222  Biso   1.000  H
  H102     1.0000 0.93889  0.10646  0.50608  Biso   1.000  H
  C112     1.0000 0.95102  0.05396  0.39100  Biso   1.000  C
  C113     1.0000 0.58102  0.73074  0.98101  Biso   1.000  C
  I9       1.0000 0.65050  0.49752  0.00735  Biso   1.000  I
  C114     1.0000 0.07497  0.93354  0.19332  Biso   1.000  C
  C115     1.0000 0.23750  0.00953  0.17910  Biso   1.000  C
  C116     1.0000 0.40188  0.08990  0.16411  Biso   1.000  C
  H103     1.0000 0.27789  0.14599  0.46362  Biso   1.000  H
  H104     1.0000 0.34699  0.18636  0.54448  Biso   1.000  H
  C117     1.0000 0.33103  0.29198  0.53702  Biso   1.000  C
  C118     1.0000 0.51940  0.02851  0.14178  Biso   1.000  C
  C119     1.0000 0.49532  0.89345  0.02078  Biso   1.000  C
  H105     1.0000 0.70474  0.10834  0.23542  Biso   1.000  H
  H106     1.0000 0.72965  0.12684  0.16352  Biso   1.000  H
  C120     1.0000 0.81911  0.09483  0.20640  Biso   1.000  C
  H107     1.0000 0.91953  0.99210  0.34238  Biso   1.000  H
  H108     1.0000 0.93921  0.09967  0.38240  Biso   1.000  H
  C121     1.0000 0.05698  0.09297  0.41399  Biso   1.000  C
  H109     1.0000 0.60457  0.72779  0.93443  Biso   1.000  H
  H110     1.0000 0.56135  0.66925  0.97999  Biso   1.000  H
  C122     1.0000 0.49483  0.74274  0.97522  Biso   1.000  C
  C123     1.0000 0.99459  0.90395  0.16567  Biso   1.000  C
  O14      1.0000 0.20379  0.01398  0.11598  Biso   1.000  O
  C124     1.0000 0.43639  0.02211  0.11443  Biso   1.000  C
  H111     1.0000 0.36553  0.09414  0.12589  Biso   1.000  H
  C125     1.0000 0.48121  0.19427  0.22067  Biso   1.000  C
  H112     1.0000 0.38582  0.34227  0.58258  Biso   1.000  H
  H113     1.0000 0.27560  0.27866  0.55756  Biso   1.000  H
  C126     1.0000 0.32601  0.33700  0.48500  Biso   1.000  C
  H114     1.0000 0.55518  0.07658  0.19380  Biso   1.000  H
  C127     1.0000 0.40715  0.87859  0.99003  Biso   1.000  C
  O15      1.0000 0.52756  0.83526  0.97480  Biso   1.000  O
  H115     1.0000 0.82830  0.05513  0.15731  Biso   1.000  H
  H116     1.0000 0.81653  0.06751  0.24151  Biso   1.000  H
  C128     1.0000 0.90505  0.19702  0.24498  Biso   1.000  C
  H117     1.0000 0.06912  0.06517  0.44301  Biso   1.000  H
  H118     1.0000 0.07804  0.07650  0.36621  Biso   1.000  H
  H119     1.0000 0.08969  0.16308  0.44642  Biso   1.000  H
  H120     1.0000 0.46907  0.74434  0.02048  Biso   1.000  H
  H121     1.0000 0.44584  0.68898  0.92660  Biso   1.000  H
  I10      1.0000 0.85803  0.85493  0.11968  Biso   1.000  I
  C129     1.0000 0.15465  0.92155  0.03882  Biso   1.000  C
  C130     1.0000 0.38156  0.94557  0.03900  Biso   1.000  C
  H122     1.0000 0.52439  0.21748  0.19111  Biso   1.000  H
  H123     1.0000 0.51654  0.19443  0.26212  Biso   1.000  H
  C131     1.0000 0.44530  0.26422  0.25949  Biso   1.000  C
  H124     1.0000 0.38702  0.36429  0.47479  Biso   1.000  H
  H125     1.0000 0.28044  0.28409  0.43459  Biso   1.000  H
  C132     1.0000 0.29902  0.41499  0.51599  Biso   1.000  C
  C133     1.0000 0.34675  0.79839  0.91370  Biso   1.000  C
  H126     1.0000 0.90693  0.22870  0.21422  Biso   1.000  H
  H127     1.0000 0.90354  0.23581  0.29879  Biso   1.000  H
  C134     1.0000 0.99099  0.18396  0.24898  Biso   1.000  C
  C135     1.0000 0.21293  0.87113  0.01368  Biso   1.000  C
  H128     1.0000 0.09494  0.87736  0.04300  Biso   1.000  H
  H129     1.0000 0.14064  0.93523  0.99749  Biso   1.000  H
  O16      1.0000 0.30035  0.93805  0.00579  Biso   1.000  O
  H130     1.0000 0.43034  0.26151  0.30739  Biso   1.000  H
  H131     1.0000 0.38649  0.24001  0.22330  Biso   1.000  H
  C136     1.0000 0.50999  0.37062  0.28302  Biso   1.000  C
  H132     1.0000 0.35097  0.47542  0.52328  Biso   1.000  H
  H133     1.0000 0.24458  0.39567  0.47771  Biso   1.000  H
  H134     1.0000 0.28372  0.42436  0.56586  Biso   1.000  H
  C137     1.0000 0.29416  0.72740  0.84873  Biso   1.000  C
  H135     1.0000 0.97474  0.13242  0.26152  Biso   1.000  H
  C138     1.0000 0.03201  0.16201  0.17701  Biso   1.000  C
  H136     1.0000 0.04152  0.24358  0.29317  Biso   1.000  H
  H137     1.0000 0.22646  0.85540  0.05381  Biso   1.000  H
  H138     1.0000 0.17790  0.81101  0.96327  Biso   1.000  H
  H139     1.0000 0.56230  0.40119  0.32811  Biso   1.000  H
  H140     1.0000 0.53551  0.37518  0.23847  Biso   1.000  H
  C139     1.0000 0.45299  0.42300  0.30297  Biso   1.000  C
  I11      1.0000 0.21790  0.62573  0.74200  Biso   1.000  I
  I12      1.0000 0.19471  0.59375  0.77258  Biso   1.000  I
  H141     1.0000 0.99511  0.09378  0.13658  Biso   1.000  H
  H142     1.0000 0.03778  0.20269  0.15348  Biso   1.000  H
  C140     1.0000 0.12800  0.18799  0.21900  Biso   1.000  C
  H143     1.0000 0.50263  0.49050  0.32530  Biso   1.000  H
  H144     1.0000 0.43493  0.41650  0.34931  Biso   1.000  H
  C141     1.0000 0.36999  0.41901  0.26301  Biso   1.000  C
  H145     1.0000 0.17701  0.22731  0.20198  Biso   1.000  H
  H146     1.0000 0.13917  0.22396  0.27567  Biso   1.000  H
  H147     1.0000 0.12939  0.12942  0.20538  Biso   1.000  H
  H148     1.0000 0.38369  0.43970  0.22330  Biso   1.000  H
  H149     1.0000 0.31302  0.35529  0.24008  Biso   1.000  H
  C142     1.0000 0.36202  0.49400  0.33701  Biso   1.000  C
  H150     1.0000 0.36018  0.47727  0.37899  Biso   1.000  H
  H151     1.0000 0.41608  0.55776  0.35486  Biso   1.000  H
  H152     1.0000 0.30529  0.49417  0.32429  Biso   1.000  H
