data_image0
_cell_length_a       14.225
_cell_length_b       15.947
_cell_length_c       16.547
_cell_angle_alpha    90.93
_cell_angle_beta     93.84
_cell_angle_gamma    103.55

_symmetry_space_group_name_H-M    "P 1"
_symmetry_int_tables_number       1

loop_
  _symmetry_equiv_pos_as_xyz
  'x, y, z'

loop_
  _atom_site_label
  _atom_site_occupancy
  _atom_site_fract_x
  _atom_site_fract_y
  _atom_site_fract_z
  _atom_site_thermal_displace_type
  _atom_site_B_iso_or_equiv
  _atom_site_type_symbol
  C1       1.0000 0.59461  0.70496  0.32968  Biso   1.000  C
  C2       1.0000 0.55862  0.66446  0.25611  Biso   1.000  C
  H1       1.0000 0.57321  0.67959  0.37883  Biso   1.000  H
  C3       1.0000 0.66213  0.78332  0.33119  Biso   1.000  C
  C4       1.0000 0.59210  0.70253  0.18660  Biso   1.000  C
  H2       1.0000 0.51150  0.61109  0.25350  Biso   1.000  H
  N1       1.0000 0.69508  0.82147  0.26374  Biso   1.000  N
  C5       1.0000 0.70352  0.83027  0.41010  Biso   1.000  C
  C6       1.0000 0.66012  0.78112  0.19284  Biso   1.000  C
  H3       1.0000 0.56922  0.67569  0.13502  Biso   1.000  H
  H4       1.0000 0.66731  0.80068  0.45470  Biso   1.000  H
  H5       1.0000 0.77193  0.82667  0.41961  Biso   1.000  H
  N2       1.0000 0.69965  0.92068  0.41295  Biso   1.000  N
  C7       1.0000 0.70062  0.82403  0.11781  Biso   1.000  C
  C8       1.0000 0.61060  0.93879  0.41083  Biso   1.000  C
  C9       1.0000 0.78358  0.98600  0.39028  Biso   1.000  C
  H6       1.0000 0.76824  0.81847  0.11563  Biso   1.000  H
  H7       1.0000 0.66269  0.79267  0.06957  Biso   1.000  H
  N3       1.0000 0.69956  0.91501  0.11321  Biso   1.000  N
  O1       1.0000 0.53665  0.88191  0.42034  Biso   1.000  O
  N4       1.0000 0.60864  0.02265  0.40161  Biso   1.000  N
  H8       1.0000 0.84369  0.97030  0.41161  Biso   1.000  H
  H9       1.0000 0.78371  0.98655  0.33053  Biso   1.000  H
  N5       1.0000 0.78383  0.07079  0.42070  Biso   1.000  N
  C10      1.0000 0.61179  0.93544  0.10345  Biso   1.000  C
  C11      1.0000 0.78802  0.98086  0.13696  Biso   1.000  C
  C12      1.0000 0.69509  0.09092  0.38955  Biso   1.000  C
  C13      1.0000 0.51655  0.04700  0.39525  Biso   1.000  C
  C14      1.0000 0.81458  0.09294  0.50791  Biso   1.000  C
  O2       1.0000 0.53619  0.87899  0.08854  Biso   1.000  O
  N6       1.0000 0.61260  0.02048  0.10781  Biso   1.000  N
  H10      1.0000 0.79547  0.98747  0.19678  Biso   1.000  H
  H11      1.0000 0.84457  0.96146  0.11890  Biso   1.000  H
  N7       1.0000 0.78686  0.06333  0.10309  Biso   1.000  N
  H12      1.0000 0.69863  0.10118  0.33089  Biso   1.000  H
  H13      1.0000 0.68882  0.14495  0.41658  Biso   1.000  H
  H14      1.0000 0.46393  0.99488  0.40083  Biso   1.000  H
  H15      1.0000 0.51511  0.08768  0.44082  Biso   1.000  H
  C15      1.0000 0.49675  0.08862  0.31665  Biso   1.000  C
  C16      1.0000 0.74165  0.05277  0.56718  Biso   1.000  C
  C17      1.0000 0.83174  0.19097  0.51858  Biso   1.000  C
  C18      1.0000 0.91103  0.07166  0.52640  Biso   1.000  C
  C19      1.0000 0.52219  0.04742  0.10175  Biso   1.000  C
  C20      1.0000 0.70195  0.08738  0.12672  Biso   1.000  C
  C21      1.0000 0.81224  0.07809  0.01812  Biso   1.000  C
  N8       1.0000 0.51792  0.05315  0.24865  Biso   1.000  N
  C22      1.0000 0.45681  0.15991  0.31707  Biso   1.000  C
  H16      1.0000 0.73098  0.98988  0.56373  Biso   1.000  H
  H17      1.0000 0.68013  0.06895  0.55403  Biso   1.000  H
  H18      1.0000 0.76641  0.07366  0.62239  Biso   1.000  H
  H19      1.0000 0.87350  0.21900  0.47731  Biso   1.000  H
  H20      1.0000 0.86303  0.20925  0.57264  Biso   1.000  H
  H21      1.0000 0.76942  0.20734  0.51258  Biso   1.000  H
  H22      1.0000 0.90202  0.00896  0.52833  Biso   1.000  H
  H23      1.0000 0.93964  0.09839  0.57882  Biso   1.000  H
  H24      1.0000 0.95421  0.09397  0.48391  Biso   1.000  H
  H25      1.0000 0.46881  0.99639  0.08672  Biso   1.000  H
  C23      1.0000 0.49985  0.08920  0.17848  Biso   1.000  C
  H26      1.0000 0.52425  0.08870  0.05751  Biso   1.000  H
  H27      1.0000 0.69600  0.14066  0.09902  Biso   1.000  H
  H28      1.0000 0.70911  0.10061  0.18581  Biso   1.000  H
  C24      1.0000 0.75519  0.98989  0.96218  Biso   1.000  C
  C25      1.0000 0.73120  0.04311  0.95303  Biso   1.000  C
  C26      1.0000 0.79023  0.15111  0.97752  Biso   1.000  C
  C27      1.0000 0.83563  0.17949  0.01079  Biso   1.000  C
  C28      1.0000 0.90454  0.05061  0.00691  Biso   1.000  C
  C29      1.0000 0.91463  0.06752  0.00903  Biso   1.000  C
  C30      1.0000 0.43801  0.19581  0.24441  Biso   1.000  C
  H29      1.0000 0.44272  0.18364  0.36659  Biso   1.000  H
  C31      1.0000 0.46017  0.16051  0.17411  Biso   1.000  C
  H30      1.0000 0.70949  0.98042  0.95703  Biso   1.000  H
  H31      1.0000 0.68568  0.97720  0.97000  Biso   1.000  H
  H32      1.0000 0.78137  0.94082  0.97903  Biso   1.000  H
  H33      1.0000 0.76520  0.00033  0.90479  Biso   1.000  H
  H34      1.0000 0.75520  0.05671  0.89940  Biso   1.000  H
  H35      1.0000 0.67679  0.06982  0.96049  Biso   1.000  H
  H36      1.0000 0.86203  0.19514  0.95849  Biso   1.000  H
  H37      1.0000 0.73849  0.13090  0.93473  Biso   1.000  H
  H38      1.0000 0.84831  0.18394  0.95370  Biso   1.000  H
  H39      1.0000 0.77601  0.19970  0.01479  Biso   1.000  H
  H40      1.0000 0.76891  0.18841  0.01673  Biso   1.000  H
  H41      1.0000 0.88336  0.20658  0.05472  Biso   1.000  H
  H42      1.0000 0.89151  0.98748  0.00558  Biso   1.000  H
  H43      1.0000 0.93013  0.07223  0.95570  Biso   1.000  H
  H44      1.0000 0.93562  0.08786  0.95631  Biso   1.000  H
  H45      1.0000 0.95212  0.07418  0.05188  Biso   1.000  H
  H46      1.0000 0.91553  0.00652  0.01327  Biso   1.000  H
  H47      1.0000 0.95870  0.10128  0.05218  Biso   1.000  H
  H48      1.0000 0.41003  0.24440  0.24302  Biso   1.000  H
  H49      1.0000 0.44845  0.18447  0.12333  Biso   1.000  H
  C32      1.0000 0.40541  0.29499  0.67033  Biso   1.000  C
  C33      1.0000 0.33782  0.21663  0.66881  Biso   1.000  C
  C34      1.0000 0.44140  0.33549  0.74390  Biso   1.000  C
  H50      1.0000 0.42681  0.32035  0.62118  Biso   1.000  H
  C35      1.0000 0.29650  0.16968  0.58991  Biso   1.000  C
  N9       1.0000 0.30487  0.17848  0.73626  Biso   1.000  N
  C36      1.0000 0.40792  0.29742  0.81341  Biso   1.000  C
  H51      1.0000 0.48852  0.38886  0.74650  Biso   1.000  H
  H52      1.0000 0.33271  0.19927  0.54530  Biso   1.000  H
  H53      1.0000 0.22809  0.17328  0.58039  Biso   1.000  H
  N10      1.0000 0.30037  0.07927  0.58706  Biso   1.000  N
  C37      1.0000 0.33991  0.21883  0.80723  Biso   1.000  C
  H54      1.0000 0.43079  0.32426  0.86498  Biso   1.000  H
  C38      1.0000 0.38941  0.06116  0.58918  Biso   1.000  C
  C39      1.0000 0.21644  0.01395  0.60972  Biso   1.000  C
  C40      1.0000 0.29940  0.17592  0.88219  Biso   1.000  C
  O3       1.0000 0.46328  0.11797  0.57967  Biso   1.000  O
  N11      1.0000 0.39130  0.97730  0.59839  Biso   1.000  N
  H55      1.0000 0.15626  0.02965  0.58839  Biso   1.000  H
  H56      1.0000 0.21631  0.01340  0.66948  Biso   1.000  H
  N12      1.0000 0.21619  0.92916  0.57936  Biso   1.000  N
  H57      1.0000 0.23179  0.18148  0.88444  Biso   1.000  H
  H58      1.0000 0.33733  0.20728  0.93043  Biso   1.000  H
  N13      1.0000 0.30046  0.08494  0.88680  Biso   1.000  N
  C41      1.0000 0.30486  0.90903  0.61045  Biso   1.000  C
  C42      1.0000 0.48347  0.95295  0.60475  Biso   1.000  C
  C43      1.0000 0.18544  0.90701  0.49209  Biso   1.000  C
  C44      1.0000 0.38816  0.06451  0.89656  Biso   1.000  C
  C45      1.0000 0.21200  0.01909  0.86304  Biso   1.000  C
  H59      1.0000 0.30139  0.89877  0.66911  Biso   1.000  H
  H60      1.0000 0.31120  0.85500  0.58342  Biso   1.000  H
  H61      1.0000 0.53609  0.00507  0.59918  Biso   1.000  H
  H62      1.0000 0.48491  0.91226  0.55918  Biso   1.000  H
  C46      1.0000 0.50327  0.91133  0.68342  Biso   1.000  C
  C47      1.0000 0.25837  0.94718  0.43282  Biso   1.000  C
  C48      1.0000 0.16828  0.80898  0.48143  Biso   1.000  C
  C49      1.0000 0.08899  0.92829  0.47361  Biso   1.000  C
  O4       1.0000 0.46384  0.12096  0.91153  Biso   1.000  O
  N14      1.0000 0.38735  0.97947  0.89219  Biso   1.000  N
  H63      1.0000 0.20448  0.01248  0.80323  Biso   1.000  H
  H64      1.0000 0.15538  0.03849  0.88110  Biso   1.000  H
  N15      1.0000 0.21315  0.93661  0.89692  Biso   1.000  N
  C50      1.0000 0.54321  0.84004  0.68293  Biso   1.000  C
  N16      1.0000 0.48210  0.94680  0.75141  Biso   1.000  N
  H65      1.0000 0.26897  0.01007  0.43628  Biso   1.000  H
  H66      1.0000 0.31989  0.93100  0.44598  Biso   1.000  H
  H67      1.0000 0.23361  0.92628  0.37762  Biso   1.000  H
  H68      1.0000 0.12645  0.78095  0.52270  Biso   1.000  H
  H69      1.0000 0.13699  0.79070  0.42743  Biso   1.000  H
  H70      1.0000 0.23058  0.79255  0.48743  Biso   1.000  H
  H71      1.0000 0.09800  0.99099  0.47173  Biso   1.000  H
  H72      1.0000 0.06038  0.90156  0.42119  Biso   1.000  H
  H73      1.0000 0.04581  0.90598  0.51609  Biso   1.000  H
  C51      1.0000 0.47775  0.95253  0.89825  Biso   1.000  C
  C52      1.0000 0.29805  0.91250  0.87329  Biso   1.000  C
  C53      1.0000 0.18778  0.92185  0.98189  Biso   1.000  C
  H74      1.0000 0.55728  0.81624  0.63342  Biso   1.000  H
  C54      1.0000 0.56199  0.80407  0.75559  Biso   1.000  C
  C55      1.0000 0.50017  0.91075  0.82153  Biso   1.000  C
  H75      1.0000 0.53120  0.00356  0.91328  Biso   1.000  H
  H76      1.0000 0.47577  0.91125  0.94249  Biso   1.000  H
  H77      1.0000 0.30395  0.85929  0.90098  Biso   1.000  H
  H78      1.0000 0.29084  0.89934  0.81420  Biso   1.000  H
  C56      1.0000 0.16439  0.82045  0.98922  Biso   1.000  C
  C57      1.0000 0.09548  0.94934  0.99310  Biso   1.000  C
  C58      1.0000 0.08540  0.93243  0.99104  Biso   1.000  C
  C59      1.0000 0.26882  0.95684  0.04703  Biso   1.000  C
  C60      1.0000 0.20979  0.84884  0.02249  Biso   1.000  C
  C61      1.0000 0.24481  0.00999  0.03782  Biso   1.000  C
  H79      1.0000 0.58999  0.75555  0.75699  Biso   1.000  H
  C62      1.0000 0.53985  0.83943  0.82589  Biso   1.000  C
  H80      1.0000 0.22400  0.80025  0.98522  Biso   1.000  H
  H81      1.0000 0.11666  0.79337  0.94528  Biso   1.000  H
  H82      1.0000 0.23104  0.81154  0.98334  Biso   1.000  H
  H83      1.0000 0.13799  0.80481  0.04152  Biso   1.000  H
  H84      1.0000 0.15171  0.81600  0.04631  Biso   1.000  H
  H85      1.0000 0.10851  0.01247  0.99443  Biso   1.000  H
  H86      1.0000 0.04790  0.92577  0.94813  Biso   1.000  H
  H87      1.0000 0.08449  0.99343  0.98673  Biso   1.000  H
  H88      1.0000 0.04125  0.89866  0.94783  Biso   1.000  H
  H89      1.0000 0.06989  0.92772  0.04431  Biso   1.000  H
  H90      1.0000 0.06440  0.91209  0.04370  Biso   1.000  H
  H91      1.0000 0.24482  0.94324  0.10061  Biso   1.000  H
  H92      1.0000 0.32323  0.93013  0.03952  Biso   1.000  H
  H93      1.0000 0.23481  0.99962  0.09521  Biso   1.000  H
  H94      1.0000 0.29053  0.01953  0.04303  Biso   1.000  H
  H95      1.0000 0.31433  0.02275  0.03000  Biso   1.000  H
  H96      1.0000 0.26151  0.86898  0.06534  Biso   1.000  H
  H97      1.0000 0.21866  0.05913  0.02103  Biso   1.000  H
  H98      1.0000 0.55157  0.81548  0.87674  Biso   1.000  H
