data_image0
_cell_length_a       12.039
_cell_length_b       15.317
_cell_length_c       24.823
_cell_angle_alpha    90
_cell_angle_beta     90.36
_cell_angle_gamma    90

_symmetry_space_group_name_H-M    "P 1"
_symmetry_int_tables_number       1

loop_
  _symmetry_equiv_pos_as_xyz
  'x, y, z'

loop_
  _atom_site_label
  _atom_site_occupancy
  _atom_site_fract_x
  _atom_site_fract_y
  _atom_site_fract_z
  _atom_site_thermal_displace_type
  _atom_site_B_iso_or_equiv
  _atom_site_type_symbol
  C1       1.0000 0.54207  0.57942  0.54499  Biso   1.000  C
  C2       1.0000 0.43454  0.60521  0.53480  Biso   1.000  C
  C3       1.0000 0.57630  0.56297  0.59712  Biso   1.000  C
  H1       1.0000 0.59278  0.57289  0.51610  Biso   1.000  H
  O1       1.0000 0.39903  0.61637  0.48073  Biso   1.000  O
  C4       1.0000 0.35749  0.61637  0.57601  Biso   1.000  C
  C5       1.0000 0.50168  0.57531  0.63970  Biso   1.000  C
  C6       1.0000 0.69146  0.53202  0.60570  Biso   1.000  C
  C7       1.0000 0.37664  0.69687  0.46369  Biso   1.000  C
  O2       1.0000 0.25122  0.64268  0.56739  Biso   1.000  O
  C8       1.0000 0.39546  0.60358  0.62826  Biso   1.000  C
  H2       1.0000 0.52408  0.56421  0.67580  Biso   1.000  H
  O3       1.0000 0.76288  0.53359  0.57259  Biso   1.000  O
  O4       1.0000 0.70681  0.50049  0.65602  Biso   1.000  O
  N1       1.0000 0.32369  0.70092  0.41611  Biso   1.000  N
  N2       1.0000 0.40818  0.76353  0.49419  Biso   1.000  N
  C9       1.0000 0.18171  0.58347  0.53601  Biso   1.000  C
  O5       1.0000 0.32600  0.62519  0.67169  Biso   1.000  O
  C10      1.0000 0.81561  0.46628  0.66778  Biso   1.000  C
  C11      1.0000 0.30688  0.78331  0.40109  Biso   1.000  C
  C12      1.0000 0.38091  0.84090  0.47292  Biso   1.000  C
  H3       1.0000 0.19009  0.59587  0.49709  Biso   1.000  H
  H4       1.0000 0.20447  0.52243  0.54269  Biso   1.000  H
  C13      1.0000 0.06513  0.59620  0.55212  Biso   1.000  C
  C14      1.0000 0.24059  0.57283  0.68228  Biso   1.000  C
  H5       1.0000 0.81683  0.44212  0.70428  Biso   1.000  H
  H6       1.0000 0.83363  0.42019  0.64192  Biso   1.000  H
  H7       1.0000 0.87057  0.51322  0.66520  Biso   1.000  H
  Cl1      1.0000 0.23740  0.79350  0.34001  Biso   1.000  Cl
  N3       1.0000 0.33121  0.85572  0.42598  Biso   1.000  N
  O6       1.0000 0.40544  0.91317  0.50035  Biso   1.000  O
  H8       1.0000 0.01082  0.56238  0.53351  Biso   1.000  H
  C15      1.0000 0.02792  0.65098  0.59059  Biso   1.000  C
  N4       1.0000 0.17472  0.60371  0.72128  Biso   1.000  N
  N5       1.0000 0.22869  0.49873  0.65509  Biso   1.000  N
  C16      1.0000 0.43828  0.90520  0.55450  Biso   1.000  C
  H9       1.0000 0.07901  0.68623  0.61029  Biso   1.000  H
  H10      1.0000 0.95068  0.65437  0.59801  Biso   1.000  H
  C17      1.0000 0.09272  0.55011  0.73228  Biso   1.000  C
  C18      1.0000 0.13910  0.45433  0.67068  Biso   1.000  C
  C19      1.0000 0.54686  0.92257  0.56831  Biso   1.000  C
  C20      1.0000 0.35870  0.88359  0.59249  Biso   1.000  C
  O7       1.0000 0.02022  0.57080  0.77176  Biso   1.000  O
  N6       1.0000 0.06824  0.47411  0.70875  Biso   1.000  N
  Cl2      1.0000 0.11439  0.35823  0.63600  Biso   1.000  Cl
  H11      1.0000 0.59933  0.93602  0.54100  Biso   1.000  H
  C21      1.0000 0.57936  0.92048  0.62129  Biso   1.000  C
  O8       1.0000 0.25172  0.86198  0.57988  Biso   1.000  O
  C22      1.0000 0.39461  0.87863  0.64538  Biso   1.000  C
  C23      1.0000 0.04287  0.64628  0.80201  Biso   1.000  C
  C24      1.0000 0.50221  0.89783  0.66129  Biso   1.000  C
  C25      1.0000 0.69543  0.94137  0.63660  Biso   1.000  C
  C26      1.0000 0.18440  0.92668  0.55099  Biso   1.000  C
  O9       1.0000 0.32203  0.84840  0.68583  Biso   1.000  O
  C27      1.0000 0.08771  0.63609  0.85249  Biso   1.000  C
  C28      1.0000 0.01577  0.72841  0.78098  Biso   1.000  C
  H12      1.0000 0.52337  0.89561  0.69820  Biso   1.000  H
  O10      1.0000 0.76839  0.94111  0.60026  Biso   1.000  O
  O11      1.0000 0.71368  0.95939  0.68607  Biso   1.000  O
  H13      1.0000 0.20976  0.98649  0.55990  Biso   1.000  H
  C29      1.0000 0.09719  0.87602  0.51961  Biso   1.000  C
  H14      1.0000 0.19103  0.91813  0.51159  Biso   1.000  H
  C30      1.0000 0.06683  0.91421  0.56811  Biso   1.000  C
  C31      1.0000 0.23808  0.89913  0.70069  Biso   1.000  C
  C32      1.0000 0.11063  0.70928  0.88379  Biso   1.000  C
  H15      1.0000 0.10309  0.57929  0.86599  Biso   1.000  H
  C33      1.0000 0.04400  0.80022  0.81281  Biso   1.000  C
  O12      1.0000 0.97119  0.74048  0.73180  Biso   1.000  O
  C34      1.0000 0.82463  0.97291  0.70372  Biso   1.000  C
  C35      1.0000 0.06801  0.87987  0.47280  Biso   1.000  C
  H16      1.0000 0.01237  0.94973  0.55091  Biso   1.000  H
  C36      1.0000 0.03298  0.86198  0.60300  Biso   1.000  C
  N7       1.0000 0.22460  0.97767  0.67910  Biso   1.000  N
  N8       1.0000 0.17536  0.86303  0.73872  Biso   1.000  N
  C37      1.0000 0.09018  0.79271  0.86341  Biso   1.000  C
  C38      1.0000 0.16407  0.69472  0.93770  Biso   1.000  C
  O13      1.0000 0.02231  0.88457  0.79243  Biso   1.000  O
  C39      1.0000 0.88624  0.68479  0.71431  Biso   1.000  C
  C40      1.0000 0.87162  0.78279  0.72100  Biso   1.000  C
  H17      1.0000 0.82580  0.98172  0.74279  Biso   1.000  H
  H18      1.0000 0.86962  0.92172  0.69461  Biso   1.000  H
  H19      1.0000 0.85513  0.02461  0.68579  Biso   1.000  H
  H20      1.0000 0.10292  0.92042  0.44919  Biso   1.000  H
  H21      1.0000 0.01144  0.84253  0.45970  Biso   1.000  H
  H22      1.0000 0.08380  0.82470  0.62129  Biso   1.000  H
  H23      1.0000 0.95567  0.85872  0.61102  Biso   1.000  H
  C41      1.0000 0.13597  0.01978  0.69860  Biso   1.000  C
  C42      1.0000 0.09158  0.91291  0.75387  Biso   1.000  C
  H24      1.0000 0.10789  0.84318  0.88400  Biso   1.000  H
  O14      1.0000 0.18117  0.62323  0.95595  Biso   1.000  O
  O15      1.0000 0.18998  0.76849  0.96259  Biso   1.000  O
  H25      1.0000 0.91791  0.63929  0.69058  Biso   1.000  H
  H26      1.0000 0.85300  0.65528  0.74581  Biso   1.000  H
  C43      1.0000 0.80030  0.73141  0.68518  Biso   1.000  C
  H27      1.0000 0.83219  0.79363  0.75520  Biso   1.000  H
  H28      1.0000 0.88710  0.83998  0.70400  Biso   1.000  H
  N9       1.0000 0.06568  0.99282  0.73542  Biso   1.000  N
  Cl3      1.0000 0.11237  0.12176  0.67221  Biso   1.000  Cl
  C44      1.0000 0.24374  0.75831  0.01521  Biso   1.000  C
  H29      1.0000 0.82380  0.77130  0.65831  Biso   1.000  H
  C45      1.0000 0.69250  0.72377  0.69272  Biso   1.000  C
  H30      1.0000 0.27056  0.81511  0.02782  Biso   1.000  H
  H31      1.0000 0.19000  0.73500  0.04103  Biso   1.000  H
  H32      1.0000 0.30633  0.71783  0.01211  Biso   1.000  H
  H33      1.0000 0.66510  0.68479  0.71919  Biso   1.000  H
  H34      1.0000 0.64222  0.75739  0.67149  Biso   1.000  H
  C46      1.0000 0.45793  0.42058  0.45499  Biso   1.000  C
  C47      1.0000 0.56546  0.39479  0.46518  Biso   1.000  C
  C48      1.0000 0.42369  0.43703  0.40290  Biso   1.000  C
  H35      1.0000 0.40722  0.42711  0.48392  Biso   1.000  H
  O16      1.0000 0.60096  0.38363  0.51929  Biso   1.000  O
  C49      1.0000 0.64251  0.38363  0.42401  Biso   1.000  C
  C50      1.0000 0.49831  0.42469  0.36032  Biso   1.000  C
  C51      1.0000 0.30854  0.46798  0.39432  Biso   1.000  C
  C52      1.0000 0.62336  0.30313  0.53629  Biso   1.000  C
  O17      1.0000 0.74877  0.35732  0.43259  Biso   1.000  O
  C53      1.0000 0.60453  0.39642  0.37176  Biso   1.000  C
  H36      1.0000 0.47592  0.43579  0.32418  Biso   1.000  H
  O18      1.0000 0.23712  0.46641  0.42743  Biso   1.000  O
  O19      1.0000 0.29318  0.49951  0.34400  Biso   1.000  O
  N10      1.0000 0.59182  0.23647  0.50583  Biso   1.000  N
  N11      1.0000 0.67631  0.29908  0.58387  Biso   1.000  N
  C54      1.0000 0.81829  0.41653  0.46401  Biso   1.000  C
  O20      1.0000 0.67399  0.37481  0.32833  Biso   1.000  O
  C55      1.0000 0.18439  0.53372  0.33220  Biso   1.000  C
  C56      1.0000 0.61909  0.15910  0.52710  Biso   1.000  C
  C57      1.0000 0.69311  0.21669  0.59889  Biso   1.000  C
  H37      1.0000 0.80990  0.40413  0.50289  Biso   1.000  H
  H38      1.0000 0.79552  0.47757  0.45729  Biso   1.000  H
  C58      1.0000 0.93487  0.40380  0.44790  Biso   1.000  C
  C59      1.0000 0.75941  0.42717  0.31774  Biso   1.000  C
  H39      1.0000 0.18316  0.55788  0.29570  Biso   1.000  H
  H40      1.0000 0.16636  0.57981  0.35810  Biso   1.000  H
  H41      1.0000 0.12943  0.48678  0.33482  Biso   1.000  H
  O21      1.0000 0.59456  0.08683  0.49963  Biso   1.000  O
  N12      1.0000 0.66879  0.14428  0.57400  Biso   1.000  N
  Cl4      1.0000 0.76260  0.20650  0.66001  Biso   1.000  Cl
  H42      1.0000 0.98918  0.43762  0.46651  Biso   1.000  H
  C60      1.0000 0.97208  0.34902  0.40939  Biso   1.000  C
  N13      1.0000 0.82527  0.39629  0.27874  Biso   1.000  N
  N14      1.0000 0.77131  0.50127  0.34489  Biso   1.000  N
  C61      1.0000 0.56171  0.09480  0.44548  Biso   1.000  C
  H43      1.0000 0.92099  0.31377  0.38969  Biso   1.000  H
  H44      1.0000 0.04931  0.34563  0.40201  Biso   1.000  H
  C62      1.0000 0.90728  0.44989  0.26770  Biso   1.000  C
  C63      1.0000 0.86090  0.54567  0.32930  Biso   1.000  C
  C64      1.0000 0.45314  0.07743  0.43170  Biso   1.000  C
  C65      1.0000 0.64130  0.11641  0.40749  Biso   1.000  C
  O22      1.0000 0.97978  0.42920  0.22826  Biso   1.000  O
  N15      1.0000 0.93184  0.52589  0.29123  Biso   1.000  N
  Cl5      1.0000 0.88560  0.64177  0.36398  Biso   1.000  Cl
  C66      1.0000 0.42064  0.07952  0.37869  Biso   1.000  C
  H45      1.0000 0.40066  0.06398  0.45902  Biso   1.000  H
  C67      1.0000 0.60539  0.12137  0.35460  Biso   1.000  C
  O23      1.0000 0.74828  0.13802  0.42010  Biso   1.000  O
  C68      1.0000 0.95713  0.35372  0.19801  Biso   1.000  C
  C69      1.0000 0.30457  0.05863  0.36342  Biso   1.000  C
  C70      1.0000 0.49778  0.10217  0.33868  Biso   1.000  C
  O24      1.0000 0.67796  0.15160  0.31419  Biso   1.000  O
  C71      1.0000 0.81560  0.07332  0.44899  Biso   1.000  C
  C72      1.0000 0.98423  0.27159  0.21899  Biso   1.000  C
  C73      1.0000 0.91229  0.36391  0.14749  Biso   1.000  C
  O25      1.0000 0.28632  0.04061  0.31395  Biso   1.000  O
  O26      1.0000 0.23161  0.05889  0.39976  Biso   1.000  O
  H46      1.0000 0.47662  0.10439  0.30178  Biso   1.000  H
  C74      1.0000 0.76191  0.10087  0.29928  Biso   1.000  C
  H47      1.0000 0.79023  0.01351  0.44008  Biso   1.000  H
  C75      1.0000 0.90281  0.12398  0.48041  Biso   1.000  C
  H48      1.0000 0.80897  0.08187  0.48839  Biso   1.000  H
  C76      1.0000 0.93316  0.08579  0.43191  Biso   1.000  C
  C77      1.0000 0.95599  0.19978  0.18721  Biso   1.000  C
  O27      1.0000 0.02881  0.25952  0.26822  Biso   1.000  O
  C78      1.0000 0.88937  0.29072  0.11618  Biso   1.000  C
  H49      1.0000 0.89691  0.42071  0.13399  Biso   1.000  H
  C79      1.0000 0.17536  0.02709  0.29630  Biso   1.000  C
  N16      1.0000 0.77540  0.02233  0.32088  Biso   1.000  N
  N17      1.0000 0.82463  0.13697  0.26130  Biso   1.000  N
  C80      1.0000 0.93199  0.12013  0.52718  Biso   1.000  C
  H50      1.0000 0.98763  0.05027  0.44911  Biso   1.000  H
  C81      1.0000 0.96702  0.13802  0.39702  Biso   1.000  C
  O28      1.0000 0.97769  0.11543  0.20755  Biso   1.000  O
  C82      1.0000 0.90982  0.20729  0.13661  Biso   1.000  C
  C83      1.0000 0.11376  0.31521  0.28571  Biso   1.000  C
  C84      1.0000 0.12838  0.21721  0.27898  Biso   1.000  C
  C85      1.0000 0.83593  0.30528  0.06228  Biso   1.000  C
  H51      1.0000 0.17419  0.01828  0.25719  Biso   1.000  H
  H52      1.0000 0.13038  0.07828  0.30541  Biso   1.000  H
  H53      1.0000 0.14486  0.97539  0.31419  Biso   1.000  H
  C86      1.0000 0.86403  0.98022  0.30142  Biso   1.000  C
  C87      1.0000 0.90841  0.08709  0.24615  Biso   1.000  C
  H54      1.0000 0.89708  0.07958  0.55079  Biso   1.000  H
  H55      1.0000 0.98856  0.15747  0.54032  Biso   1.000  H
  H56      1.0000 0.91619  0.17530  0.37869  Biso   1.000  H
  H57      1.0000 0.04433  0.14128  0.38900  Biso   1.000  H
  H58      1.0000 0.89211  0.15682  0.11598  Biso   1.000  H
  H59      1.0000 0.08209  0.36071  0.30940  Biso   1.000  H
  H60      1.0000 0.14699  0.34472  0.25420  Biso   1.000  H
  C88      1.0000 0.19969  0.26859  0.31479  Biso   1.000  C
  H61      1.0000 0.16780  0.20637  0.24482  Biso   1.000  H
  H62      1.0000 0.11290  0.16002  0.29598  Biso   1.000  H
  O29      1.0000 0.81883  0.37677  0.04407  Biso   1.000  O
  O30      1.0000 0.81002  0.23151  0.03739  Biso   1.000  O
  N18      1.0000 0.93432  0.00718  0.26460  Biso   1.000  N
  Cl6      1.0000 0.88763  0.87824  0.32781  Biso   1.000  Cl
  H63      1.0000 0.17620  0.22870  0.34171  Biso   1.000  H
  C89      1.0000 0.30749  0.27623  0.30730  Biso   1.000  C
  C90      1.0000 0.75626  0.24169  0.98477  Biso   1.000  C
  H64      1.0000 0.33489  0.31521  0.28079  Biso   1.000  H
  H65      1.0000 0.35777  0.24261  0.32849  Biso   1.000  H
  H66      1.0000 0.72943  0.18489  0.97216  Biso   1.000  H
  H67      1.0000 0.81000  0.26500  0.95899  Biso   1.000  H
  H68      1.0000 0.69367  0.28217  0.98787  Biso   1.000  H
  O31      1.0000 0.69002  0.73147  0.46260  Biso   1.000  O
  C91      1.0000 0.66411  0.80531  0.43771  Biso   1.000  C
  C92      1.0000 0.74370  0.74172  0.51522  Biso   1.000  C
  C93      1.0000 0.61059  0.79069  0.38380  Biso   1.000  C
  O32      1.0000 0.68121  0.87680  0.45592  Biso   1.000  O
  H69      1.0000 0.77061  0.68493  0.52779  Biso   1.000  H
  H70      1.0000 0.69004  0.76503  0.54100  Biso   1.000  H
  H71      1.0000 0.80629  0.78220  0.51212  Biso   1.000  H
  C94      1.0000 0.59022  0.70732  0.36342  Biso   1.000  C
  C95      1.0000 0.58767  0.86388  0.35250  Biso   1.000  C
  C96      1.0000 0.54396  0.69981  0.31278  Biso   1.000  C
  H72      1.0000 0.60793  0.65679  0.38401  Biso   1.000  H
  C97      1.0000 0.54291  0.85369  0.30198  Biso   1.000  C
  H73      1.0000 0.60313  0.92068  0.36600  Biso   1.000  H
  O33      1.0000 0.52227  0.61539  0.29244  Biso   1.000  O
  C98      1.0000 0.51581  0.77163  0.28099  Biso   1.000  C
  O34      1.0000 0.52017  0.92923  0.27173  Biso   1.000  O
  C99      1.0000 0.59163  0.58713  0.25384  Biso   1.000  C
  O35      1.0000 0.47123  0.75948  0.23177  Biso   1.000  O
  C100     1.0000 0.59268  0.94992  0.23229  Biso   1.000  C
  N19      1.0000 0.56572  0.50721  0.23543  Biso   1.000  N
  N20      1.0000 0.67541  0.63700  0.23869  Biso   1.000  N
  C101     1.0000 0.38620  0.81517  0.21428  Biso   1.000  C
  C102     1.0000 0.37158  0.71718  0.22101  Biso   1.000  C
  N21      1.0000 0.67468  0.89632  0.22129  Biso   1.000  N
  N22      1.0000 0.56820  0.02592  0.20876  Biso   1.000  N
  C103     1.0000 0.63601  0.48019  0.19861  Biso   1.000  C
  C104     1.0000 0.73813  0.60090  0.20070  Biso   1.000  C
  H74      1.0000 0.41787  0.86068  0.19059  Biso   1.000  H
  H75      1.0000 0.35296  0.84468  0.24578  Biso   1.000  H
  C105     1.0000 0.30026  0.76862  0.18519  Biso   1.000  C
  H76      1.0000 0.33224  0.70640  0.25521  Biso   1.000  H
  H77      1.0000 0.38706  0.65999  0.20401  Biso   1.000  H
  C106     1.0000 0.74063  0.92721  0.18229  Biso   1.000  C
  C107     1.0000 0.63914  0.04570  0.17069  Biso   1.000  C
  Cl7      1.0000 0.61233  0.37827  0.17222  Biso   1.000  Cl
  N23      1.0000 0.72464  0.52230  0.17911  Biso   1.000  N
  O36      1.0000 0.82199  0.65163  0.18584  Biso   1.000  O
  H78      1.0000 0.32384  0.72867  0.15828  Biso   1.000  H
  C108     1.0000 0.19246  0.77620  0.19269  Biso   1.000  C
  O37      1.0000 0.82596  0.87478  0.17170  Biso   1.000  O
  N24      1.0000 0.72873  0.00131  0.15510  Biso   1.000  N
  Cl8      1.0000 0.61435  0.14180  0.13601  Biso   1.000  Cl
  C109     1.0000 0.89457  0.62140  0.14539  Biso   1.000  C
  H79      1.0000 0.16506  0.81517  0.21920  Biso   1.000  H
  H80      1.0000 0.14218  0.74257  0.17150  Biso   1.000  H
  C110     1.0000 0.89551  0.89639  0.12827  Biso   1.000  C
  C111     1.0000 0.85866  0.61637  0.09250  Biso   1.000  C
  C112     1.0000 0.00217  0.60221  0.16131  Biso   1.000  C
  C113     1.0000 0.85753  0.88359  0.07602  Biso   1.000  C
  C114     1.0000 0.00173  0.92472  0.13971  Biso   1.000  C
  O38      1.0000 0.75168  0.63798  0.07989  Biso   1.000  O
  C115     1.0000 0.93833  0.59483  0.05451  Biso   1.000  C
  C116     1.0000 0.07940  0.57949  0.12130  Biso   1.000  C
  H81      1.0000 0.02342  0.60443  0.19821  Biso   1.000  H
  C117     1.0000 0.93450  0.89482  0.03481  Biso   1.000  C
  O39      1.0000 0.75118  0.85728  0.06740  Biso   1.000  O
  H82      1.0000 0.02412  0.93582  0.17581  Biso   1.000  H
  C118     1.0000 0.07626  0.93700  0.09709  Biso   1.000  C
  C119     1.0000 0.68444  0.57328  0.05100  Biso   1.000  C
  O40      1.0000 0.90540  0.58680  0.00036  Biso   1.000  O
  C120     1.0000 0.04690  0.57740  0.06828  Biso   1.000  C
  C121     1.0000 0.19539  0.55860  0.13661  Biso   1.000  C
  O41      1.0000 0.89899  0.88359  0.98070  Biso   1.000  O
  C122     1.0000 0.04211  0.92061  0.04500  Biso   1.000  C
  C123     1.0000 0.68167  0.91650  0.03602  Biso   1.000  C
  C124     1.0000 0.19150  0.96801  0.10571  Biso   1.000  C
  H83      1.0000 0.70981  0.51348  0.05991  Biso   1.000  H
  C125     1.0000 0.59723  0.62401  0.01962  Biso   1.000  C
  H84      1.0000 0.69099  0.58190  0.01160  Biso   1.000  H
  C126     1.0000 0.56679  0.58582  0.06808  Biso   1.000  C
  C127     1.0000 0.88087  0.65907  0.97289  Biso   1.000  C
  H85      1.0000 0.09929  0.56401  0.04101  Biso   1.000  H
  O42      1.0000 0.26843  0.55892  0.10027  Biso   1.000  O
  O43      1.0000 0.21372  0.54058  0.18608  Biso   1.000  O
  C128     1.0000 0.87660  0.80309  0.96366  Biso   1.000  C
  H86      1.0000 0.09282  0.92707  0.01611  Biso   1.000  H
  H87      1.0000 0.70452  0.97761  0.04270  Biso   1.000  H
  C129     1.0000 0.56509  0.90383  0.05209  Biso   1.000  C
  H88      1.0000 0.69014  0.90409  0.99710  Biso   1.000  H
  O44      1.0000 0.26292  0.96638  0.07260  Biso   1.000  O
  O45      1.0000 0.20677  0.99948  0.15599  Biso   1.000  O
  C130     1.0000 0.56797  0.62010  0.97277  Biso   1.000  C
  H89      1.0000 0.51241  0.55030  0.05088  Biso   1.000  H
  C131     1.0000 0.53302  0.63798  0.10301  Biso   1.000  C
  N25      1.0000 0.83117  0.64432  0.92599  Biso   1.000  N
  N26      1.0000 0.90822  0.73650  0.99416  Biso   1.000  N
  C132     1.0000 0.32459  0.52713  0.20369  Biso   1.000  C
  N27      1.0000 0.82373  0.79911  0.91608  Biso   1.000  N
  H90      1.0000 0.51078  0.93759  0.03352  Biso   1.000  H
  C133     1.0000 0.52788  0.84899  0.09060  Biso   1.000  C
  C134     1.0000 0.31557  0.03369  0.16779  Biso   1.000  C
  H91      1.0000 0.60288  0.57962  0.94920  Biso   1.000  H
  H92      1.0000 0.51140  0.65750  0.95967  Biso   1.000  H
  H93      1.0000 0.58376  0.67533  0.12130  Biso   1.000  H
  H94      1.0000 0.45571  0.64131  0.11099  Biso   1.000  H
  C135     1.0000 0.80693  0.71672  0.90110  Biso   1.000  C
  H95      1.0000 0.32576  0.51831  0.24280  Biso   1.000  H
  H96      1.0000 0.36958  0.57831  0.19458  Biso   1.000  H
  H97      1.0000 0.35509  0.47542  0.18580  Biso   1.000  H
  H98      1.0000 0.57897  0.81380  0.11030  Biso   1.000  H
  H99      1.0000 0.45073  0.84560  0.09802  Biso   1.000  H
  H100     1.0000 0.37061  0.98681  0.16521  Biso   1.000  H
  H101     1.0000 0.31679  0.05791  0.20429  Biso   1.000  H
  H102     1.0000 0.33359  0.07978  0.14189  Biso   1.000  H
  Cl9      1.0000 0.73744  0.70647  0.83998  Biso   1.000  Cl
  O46      1.0000 0.30998  0.26853  0.53738  Biso   1.000  O
  C136     1.0000 0.25630  0.25828  0.48480  Biso   1.000  C
  C137     1.0000 0.33588  0.19469  0.56231  Biso   1.000  C
  H103     1.0000 0.22939  0.31507  0.47219  Biso   1.000  H
  H104     1.0000 0.31004  0.23497  0.45902  Biso   1.000  H
  H105     1.0000 0.19371  0.21780  0.48790  Biso   1.000  H
  O47      1.0000 0.31879  0.12320  0.54406  Biso   1.000  O
  C138     1.0000 0.38941  0.20931  0.61621  Biso   1.000  C
  C139     1.0000 0.40978  0.29268  0.63660  Biso   1.000  C
  C140     1.0000 0.41233  0.13612  0.64752  Biso   1.000  C
  C141     1.0000 0.45603  0.30019  0.68720  Biso   1.000  C
  H106     1.0000 0.39207  0.34321  0.61601  Biso   1.000  H
  H107     1.0000 0.39687  0.07932  0.63398  Biso   1.000  H
  C142     1.0000 0.45709  0.14631  0.69800  Biso   1.000  C
  O48      1.0000 0.47773  0.38461  0.70758  Biso   1.000  O
  C143     1.0000 0.48419  0.22837  0.71898  Biso   1.000  C
  O49      1.0000 0.47982  0.07077  0.72825  Biso   1.000  O
  C144     1.0000 0.40837  0.41287  0.74614  Biso   1.000  C
  O50      1.0000 0.52877  0.24052  0.76821  Biso   1.000  O
  C145     1.0000 0.40732  0.05008  0.76773  Biso   1.000  C
  N28      1.0000 0.43428  0.49279  0.76459  Biso   1.000  N
  N29      1.0000 0.32459  0.36300  0.76128  Biso   1.000  N
  C146     1.0000 0.61380  0.18483  0.78570  Biso   1.000  C
  C147     1.0000 0.62842  0.28282  0.77901  Biso   1.000  C
  N30      1.0000 0.32531  0.10368  0.77873  Biso   1.000  N
  N31      1.0000 0.43180  0.97408  0.79122  Biso   1.000  N
  C148     1.0000 0.36398  0.51981  0.80141  Biso   1.000  C
  C149     1.0000 0.26187  0.39910  0.79931  Biso   1.000  C
  H108     1.0000 0.58213  0.13932  0.80939  Biso   1.000  H
  H109     1.0000 0.64703  0.15532  0.75419  Biso   1.000  H
  C150     1.0000 0.69973  0.23138  0.81478  Biso   1.000  C
  H110     1.0000 0.66776  0.29360  0.74481  Biso   1.000  H
  H111     1.0000 0.61294  0.34001  0.79601  Biso   1.000  H
  C151     1.0000 0.25937  0.07279  0.81773  Biso   1.000  C
  C152     1.0000 0.36094  0.95430  0.82929  Biso   1.000  C
  Cl10     1.0000 0.38767  0.62173  0.82780  Biso   1.000  Cl
  N32      1.0000 0.27544  0.47770  0.82091  Biso   1.000  N
  O51      1.0000 0.17800  0.34837  0.81418  Biso   1.000  O
  H112     1.0000 0.67616  0.27133  0.84170  Biso   1.000  H
  C153     1.0000 0.80753  0.22380  0.80729  Biso   1.000  C
  O52      1.0000 0.17403  0.12522  0.82832  Biso   1.000  O
  N33      1.0000 0.27127  0.99869  0.84492  Biso   1.000  N
  Cl11     1.0000 0.38564  0.85820  0.86397  Biso   1.000  Cl
  C154     1.0000 0.10543  0.37860  0.85459  Biso   1.000  C
  H113     1.0000 0.83493  0.18483  0.78078  Biso   1.000  H
  H114     1.0000 0.85781  0.25743  0.82848  Biso   1.000  H
  C155     1.0000 0.10449  0.10361  0.87175  Biso   1.000  C
  C156     1.0000 0.14134  0.38363  0.90748  Biso   1.000  C
  C157     1.0000 0.99782  0.39779  0.83871  Biso   1.000  C
  C158     1.0000 0.14246  0.11641  0.92400  Biso   1.000  C
  C159     1.0000 0.99827  0.07528  0.86031  Biso   1.000  C
  O53      1.0000 0.24832  0.36202  0.92013  Biso   1.000  O
  C160     1.0000 0.06167  0.40517  0.94551  Biso   1.000  C
  C161     1.0000 0.92060  0.42051  0.87872  Biso   1.000  C
  H115     1.0000 0.97658  0.39557  0.80181  Biso   1.000  H
  O54      1.0000 0.24881  0.14272  0.93262  Biso   1.000  O
  C162     1.0000 0.06550  0.10518  0.96521  Biso   1.000  C
  H116     1.0000 0.97587  0.06418  0.82421  Biso   1.000  H
  C163     1.0000 0.92373  0.06300  0.90289  Biso   1.000  C
  C164     1.0000 0.31556  0.42672  0.94902  Biso   1.000  C
  O55      1.0000 0.09460  0.41320  0.99966  Biso   1.000  O
  C165     1.0000 0.95310  0.42260  0.93169  Biso   1.000  C
  C166     1.0000 0.80461  0.44140  0.86341  Biso   1.000  C
  C167     1.0000 0.31833  0.08350  0.96400  Biso   1.000  C
  C168     1.0000 0.95788  0.07939  0.95498  Biso   1.000  C
  O56      1.0000 0.10100  0.11641  0.01932  Biso   1.000  O
  C169     1.0000 0.80850  0.03199  0.89431  Biso   1.000  C
  H117     1.0000 0.29019  0.48652  0.94011  Biso   1.000  H
  C170     1.0000 0.40277  0.37599  0.98040  Biso   1.000  C
  H118     1.0000 0.30901  0.41810  0.98842  Biso   1.000  H
  C171     1.0000 0.43320  0.41418  0.93190  Biso   1.000  C
  C172     1.0000 0.11913  0.34093  0.02713  Biso   1.000  C
  H119     1.0000 0.90070  0.43599  0.95901  Biso   1.000  H
  O57      1.0000 0.73157  0.44108  0.89975  Biso   1.000  O
  O58      1.0000 0.78627  0.45942  0.81394  Biso   1.000  O
  H120     1.0000 0.29548  0.02239  0.95732  Biso   1.000  H
  C173     1.0000 0.43491  0.09617  0.94789  Biso   1.000  C
  H121     1.0000 0.30986  0.09591  0.00292  Biso   1.000  H
  H122     1.0000 0.90717  0.07293  0.98391  Biso   1.000  H
  C174     1.0000 0.12340  0.19691  0.03632  Biso   1.000  C
  O59      1.0000 0.73708  0.03362  0.92742  Biso   1.000  O
  O60      1.0000 0.79322  0.00052  0.84399  Biso   1.000  O
  C175     1.0000 0.43203  0.37990  0.02721  Biso   1.000  C
  H123     1.0000 0.48758  0.44970  0.94910  Biso   1.000  H
  C176     1.0000 0.46697  0.36202  0.89701  Biso   1.000  C
  N34      1.0000 0.16883  0.35568  0.07403  Biso   1.000  N
  N35      1.0000 0.09177  0.26350  0.00582  Biso   1.000  N
  C177     1.0000 0.67540  0.47287  0.79629  Biso   1.000  C
  H124     1.0000 0.48922  0.06241  0.96650  Biso   1.000  H
  C178     1.0000 0.47212  0.15101  0.90942  Biso   1.000  C
  N36      1.0000 0.17626  0.20089  0.08390  Biso   1.000  N
  C179     1.0000 0.68443  0.96631  0.83219  Biso   1.000  C
  H125     1.0000 0.39712  0.42038  0.05082  Biso   1.000  H
  H126     1.0000 0.48860  0.34250  0.04031  Biso   1.000  H
  H127     1.0000 0.41623  0.32467  0.87872  Biso   1.000  H
  H128     1.0000 0.54429  0.35869  0.88899  Biso   1.000  H
  C180     1.0000 0.19307  0.28328  0.09892  Biso   1.000  C
  H129     1.0000 0.67423  0.48169  0.75722  Biso   1.000  H
  H130     1.0000 0.63042  0.42169  0.80540  Biso   1.000  H
  H131     1.0000 0.64490  0.52458  0.81418  Biso   1.000  H
  H132     1.0000 0.42103  0.18620  0.88972  Biso   1.000  H
  H133     1.0000 0.54927  0.15440  0.90200  Biso   1.000  H
  H134     1.0000 0.68320  0.94209  0.79569  Biso   1.000  H
  H135     1.0000 0.66640  0.92022  0.85809  Biso   1.000  H
  H136     1.0000 0.62939  0.01319  0.83481  Biso   1.000  H
  Cl12     1.0000 0.26256  0.29353  0.16000  Biso   1.000  Cl
