data_image0
_cell_length_a       25.7
_cell_length_b       12.965
_cell_length_c       17.16
_cell_angle_alpha    90
_cell_angle_beta     107.84
_cell_angle_gamma    90

_symmetry_space_group_name_H-M    "P 1"
_symmetry_int_tables_number       1

loop_
  _symmetry_equiv_pos_as_xyz
  'x, y, z'

loop_
  _atom_site_label
  _atom_site_occupancy
  _atom_site_fract_x
  _atom_site_fract_y
  _atom_site_fract_z
  _atom_site_thermal_displace_type
  _atom_site_B_iso_or_equiv
  _atom_site_type_symbol
  C1       1.0000 0.72713  0.53552  0.56689  Biso   1.000  C
  C2       1.0000 0.70168  0.45430  0.59180  Biso   1.000  C
  C3       1.0000 0.70939  0.63563  0.57184  Biso   1.000  C
  H1       1.0000 0.75626  0.52333  0.54668  Biso   1.000  H
  C4       1.0000 0.65799  0.47142  0.62266  Biso   1.000  C
  H2       1.0000 0.71368  0.38727  0.58807  Biso   1.000  H
  C5       1.0000 0.66809  0.65499  0.60337  Biso   1.000  C
  H3       1.0000 0.72598  0.69001  0.55329  Biso   1.000  H
  N1       1.0000 0.63230  0.38666  0.64371  Biso   1.000  N
  C6       1.0000 0.64169  0.57432  0.63104  Biso   1.000  C
  H4       1.0000 0.65697  0.72272  0.60680  Biso   1.000  H
  C7       1.0000 0.59248  0.40679  0.67255  Biso   1.000  C
  C8       1.0000 0.59817  0.59013  0.66502  Biso   1.000  C
  O1       1.0000 0.56371  0.32912  0.69361  Biso   1.000  O
  C9       1.0000 0.57413  0.50598  0.68540  Biso   1.000  C
  C10      1.0000 0.57964  0.69796  0.67806  Biso   1.000  C
  C11      1.0000 0.57707  0.22561  0.68491  Biso   1.000  C
  H5       1.0000 0.54567  0.51338  0.70775  Biso   1.000  H
  H6       1.0000 0.55009  0.69371  0.70120  Biso   1.000  H
  H7       1.0000 0.60958  0.73498  0.71467  Biso   1.000  H
  H8       1.0000 0.56750  0.73344  0.62651  Biso   1.000  H
  C12      1.0000 0.54667  0.17285  0.61580  Biso   1.000  C
  C13      1.0000 0.61637  0.17871  0.74938  Biso   1.000  C
  C14      1.0000 0.50443  0.22723  0.54607  Biso   1.000  C
  C15      1.0000 0.55691  0.06795  0.61225  Biso   1.000  C
  C16      1.0000 0.62560  0.07420  0.74166  Biso   1.000  C
  C17      1.0000 0.64725  0.23887  0.82486  Biso   1.000  C
  C18      1.0000 0.46127  0.28747  0.56927  Biso   1.000  C
  H9       1.0000 0.48626  0.17594  0.50579  Biso   1.000  H
  H10      1.0000 0.52349  0.27397  0.51999  Biso   1.000  H
  H11      1.0000 0.53689  0.02993  0.56707  Biso   1.000  H
  C19      1.0000 0.59607  0.01951  0.67414  Biso   1.000  C
  H12      1.0000 0.65227  0.04073  0.78299  Biso   1.000  H
  H13      1.0000 0.66978  0.28993  0.80925  Biso   1.000  H
  H14      1.0000 0.67155  0.19190  0.86318  Biso   1.000  H
  C20      1.0000 0.61238  0.29310  0.86820  Biso   1.000  C
  C21      1.0000 0.42567  0.23980  0.60429  Biso   1.000  C
  C22      1.0000 0.45568  0.39383  0.55734  Biso   1.000  C
  H15      1.0000 0.60268  0.94940  0.67028  Biso   1.000  H
  C23      1.0000 0.57427  0.23980  0.89569  Biso   1.000  C
  C24      1.0000 0.61591  0.39892  0.88204  Biso   1.000  C
  O2       1.0000 0.43212  0.13320  0.61886  Biso   1.000  O
  C25      1.0000 0.38756  0.29310  0.63178  Biso   1.000  C
  C26      1.0000 0.41734  0.44875  0.58084  Biso   1.000  C
  H16      1.0000 0.47836  0.42823  0.53297  Biso   1.000  H
  C27      1.0000 0.53867  0.28747  0.93071  Biso   1.000  C
  O3       1.0000 0.56787  0.13320  0.88112  Biso   1.000  O
  C28      1.0000 0.58261  0.44875  0.91914  Biso   1.000  C
  H17      1.0000 0.64145  0.43702  0.86576  Biso   1.000  H
  C29      1.0000 0.39733  0.06672  0.56597  Biso   1.000  C
  C30      1.0000 0.35269  0.23887  0.67512  Biso   1.000  C
  C31      1.0000 0.38403  0.39892  0.61794  Biso   1.000  C
  H18      1.0000 0.41386  0.51948  0.57166  Biso   1.000  H
  C32      1.0000 0.49556  0.22723  0.95391  Biso   1.000  C
  C33      1.0000 0.54429  0.39383  0.94258  Biso   1.000  C
  C34      1.0000 0.60260  0.06672  0.93395  Biso   1.000  C
  H19      1.0000 0.58607  0.51948  0.92826  Biso   1.000  H
  N2       1.0000 0.35984  0.10235  0.50236  Biso   1.000  N
  C35      1.0000 0.40649  0.96182  0.58733  Biso   1.000  C
  C36      1.0000 0.38357  0.17871  0.75054  Biso   1.000  C
  H20      1.0000 0.33015  0.28993  0.69067  Biso   1.000  H
  H21      1.0000 0.32839  0.19190  0.63680  Biso   1.000  H
  H22      1.0000 0.35848  0.43702  0.63416  Biso   1.000  H
  C37      1.0000 0.45332  0.17285  0.88418  Biso   1.000  C
  H23      1.0000 0.51368  0.17594  0.99419  Biso   1.000  H
  H24      1.0000 0.47646  0.27397  0.97999  Biso   1.000  H
  H25      1.0000 0.52157  0.42823  0.96695  Biso   1.000  H
  N3       1.0000 0.64010  0.10235  0.99762  Biso   1.000  N
  C38      1.0000 0.59346  0.96182  0.91265  Biso   1.000  C
  C39      1.0000 0.32662  0.02931  0.45216  Biso   1.000  C
  C40      1.0000 0.37465  0.88885  0.53879  Biso   1.000  C
  H26      1.0000 0.43418  0.94277  0.63429  Biso   1.000  H
  C41      1.0000 0.42286  0.22561  0.81500  Biso   1.000  C
  C42      1.0000 0.37434  0.07420  0.75832  Biso   1.000  C
  C43      1.0000 0.44303  0.06795  0.88773  Biso   1.000  C
  C44      1.0000 0.67337  0.02931  0.04782  Biso   1.000  C
  H27      1.0000 0.56576  0.94277  0.86569  Biso   1.000  H
  C45      1.0000 0.62528  0.88885  0.96113  Biso   1.000  C
  C46      1.0000 0.28515  0.06410  0.38335  Biso   1.000  C
  C47      1.0000 0.33290  0.92264  0.46747  Biso   1.000  C
  C48      1.0000 0.38275  0.77555  0.56015  Biso   1.000  C
  O4       1.0000 0.43622  0.32912  0.80631  Biso   1.000  O
  C49      1.0000 0.40387  0.01951  0.82584  Biso   1.000  C
  H28      1.0000 0.34768  0.04073  0.71699  Biso   1.000  H
  H29      1.0000 0.46308  0.02993  0.93285  Biso   1.000  H
  C50      1.0000 0.66708  0.92264  0.03251  Biso   1.000  C
  C51      1.0000 0.71484  0.06410  0.11663  Biso   1.000  C
  C52      1.0000 0.61719  0.77555  0.93983  Biso   1.000  C
  H30      1.0000 0.28028  0.13452  0.37380  Biso   1.000  H
  C53      1.0000 0.25183  0.99661  0.33040  Biso   1.000  C
  C54      1.0000 0.29749  0.85546  0.40961  Biso   1.000  C
  H31      1.0000 0.41236  0.76761  0.60998  Biso   1.000  H
  H32      1.0000 0.34990  0.74778  0.56731  Biso   1.000  H
  H33      1.0000 0.39118  0.73938  0.51669  Biso   1.000  H
  C55      1.0000 0.40746  0.40679  0.82737  Biso   1.000  C
  H34      1.0000 0.39727  0.94940  0.82970  Biso   1.000  H
  C56      1.0000 0.70250  0.85546  0.09037  Biso   1.000  C
  C57      1.0000 0.74816  0.99661  0.16958  Biso   1.000  C
  H35      1.0000 0.71971  0.13452  0.12618  Biso   1.000  H
  H36      1.0000 0.58758  0.76761  0.89000  Biso   1.000  H
  H37      1.0000 0.65005  0.74778  0.93267  Biso   1.000  H
  H38      1.0000 0.60877  0.73938  0.98329  Biso   1.000  H
  H39      1.0000 0.22449  0.02129  0.28522  Biso   1.000  H
  C58      1.0000 0.25818  0.89287  0.34301  Biso   1.000  C
  H40      1.0000 0.30129  0.78457  0.41739  Biso   1.000  H
  N4       1.0000 0.36765  0.38666  0.85627  Biso   1.000  N
  C59      1.0000 0.42581  0.50598  0.81458  Biso   1.000  C
  H41      1.0000 0.69869  0.78457  0.08259  Biso   1.000  H
  C60      1.0000 0.74180  0.89287  0.15697  Biso   1.000  C
  H42      1.0000 0.77551  0.02129  0.21482  Biso   1.000  H
  H43      1.0000 0.23549  0.84744  0.30591  Biso   1.000  H
  C61      1.0000 0.34195  0.47142  0.87733  Biso   1.000  C
  H44      1.0000 0.45426  0.51338  0.79217  Biso   1.000  H
  C62      1.0000 0.40177  0.59013  0.83496  Biso   1.000  C
  H45      1.0000 0.76450  0.84744  0.19413  Biso   1.000  H
  C63      1.0000 0.35825  0.57432  0.86894  Biso   1.000  C
  C64      1.0000 0.29825  0.45430  0.90812  Biso   1.000  C
  C65      1.0000 0.42031  0.69796  0.82192  Biso   1.000  C
  C66      1.0000 0.33188  0.65499  0.89655  Biso   1.000  C
  C67      1.0000 0.27282  0.53552  0.93310  Biso   1.000  C
  H46      1.0000 0.28625  0.38727  0.91185  Biso   1.000  H
  H47      1.0000 0.44986  0.69371  0.79878  Biso   1.000  H
  H48      1.0000 0.39036  0.73498  0.78525  Biso   1.000  H
  H49      1.0000 0.43245  0.73344  0.87347  Biso   1.000  H
  H50      1.0000 0.34298  0.72272  0.89318  Biso   1.000  H
  C68      1.0000 0.29056  0.63563  0.92814  Biso   1.000  C
  H51      1.0000 0.24368  0.52333  0.95330  Biso   1.000  H
  H52      1.0000 0.27396  0.69001  0.94669  Biso   1.000  H
  C69      1.0000 0.82662  0.52927  0.45216  Biso   1.000  C
  C70      1.0000 0.83290  0.42268  0.46747  Biso   1.000  C
  C71      1.0000 0.78515  0.56406  0.38335  Biso   1.000  C
  N5       1.0000 0.85984  0.60231  0.50236  Biso   1.000  N
  C72      1.0000 0.79749  0.35550  0.40961  Biso   1.000  C
  C73      1.0000 0.87465  0.38882  0.53879  Biso   1.000  C
  C74      1.0000 0.75183  0.49657  0.33040  Biso   1.000  C
  H53      1.0000 0.78028  0.63448  0.37380  Biso   1.000  H
  C75      1.0000 0.89733  0.56668  0.56597  Biso   1.000  C
  C76      1.0000 0.75818  0.39290  0.34301  Biso   1.000  C
  H54      1.0000 0.80129  0.28461  0.41739  Biso   1.000  H
  C77      1.0000 0.90649  0.46178  0.58733  Biso   1.000  C
  C78      1.0000 0.88275  0.27559  0.56015  Biso   1.000  C
  H55      1.0000 0.72449  0.52133  0.28522  Biso   1.000  H
  O5       1.0000 0.93212  0.63324  0.61886  Biso   1.000  O
  H56      1.0000 0.73549  0.34740  0.30591  Biso   1.000  H
  H57      1.0000 0.93418  0.44281  0.63429  Biso   1.000  H
  H58      1.0000 0.91236  0.26757  0.60998  Biso   1.000  H
  H59      1.0000 0.84990  0.24782  0.56731  Biso   1.000  H
  H60      1.0000 0.89118  0.23941  0.51669  Biso   1.000  H
  C79      1.0000 0.92567  0.73984  0.60429  Biso   1.000  C
  C80      1.0000 0.88756  0.79306  0.63178  Biso   1.000  C
  C81      1.0000 0.96127  0.78750  0.56927  Biso   1.000  C
  C82      1.0000 0.85269  0.73891  0.67512  Biso   1.000  C
  C83      1.0000 0.88403  0.89896  0.61794  Biso   1.000  C
  C84      1.0000 0.95568  0.89379  0.55734  Biso   1.000  C
  C85      1.0000 0.00443  0.72719  0.54607  Biso   1.000  C
  C86      1.0000 0.88357  0.67875  0.75054  Biso   1.000  C
  H61      1.0000 0.83015  0.78990  0.69067  Biso   1.000  H
  H62      1.0000 0.82839  0.69186  0.63680  Biso   1.000  H
  H63      1.0000 0.85848  0.93698  0.63416  Biso   1.000  H
  C87      1.0000 0.91734  0.94879  0.58084  Biso   1.000  C
  H64      1.0000 0.97836  0.92819  0.53297  Biso   1.000  H
  H65      1.0000 0.98626  0.67590  0.50579  Biso   1.000  H
  C88      1.0000 0.04667  0.67281  0.61580  Biso   1.000  C
  H66      1.0000 0.02349  0.77401  0.51999  Biso   1.000  H
  C89      1.0000 0.92286  0.72565  0.81500  Biso   1.000  C
  C90      1.0000 0.87434  0.57424  0.75832  Biso   1.000  C
  H67      1.0000 0.91386  0.01951  0.57166  Biso   1.000  H
  C91      1.0000 0.07707  0.72565  0.68491  Biso   1.000  C
  C92      1.0000 0.05691  0.56791  0.61225  Biso   1.000  C
  O6       1.0000 0.93622  0.82908  0.80631  Biso   1.000  O
  C93      1.0000 0.95332  0.67281  0.88418  Biso   1.000  C
  C94      1.0000 0.90387  0.51955  0.82584  Biso   1.000  C
  H68      1.0000 0.84768  0.54069  0.71699  Biso   1.000  H
  O7       1.0000 0.06371  0.82908  0.69361  Biso   1.000  O
  C95      1.0000 0.11637  0.67875  0.74938  Biso   1.000  C
  H69      1.0000 0.03689  0.52989  0.56707  Biso   1.000  H
  C96      1.0000 0.09607  0.51955  0.67414  Biso   1.000  C
  C97      1.0000 0.90746  0.90675  0.82737  Biso   1.000  C
  C98      1.0000 0.94303  0.56791  0.88773  Biso   1.000  C
  C99      1.0000 0.99556  0.72719  0.95391  Biso   1.000  C
  H70      1.0000 0.89727  0.44936  0.82970  Biso   1.000  H
  C100     1.0000 0.09248  0.90675  0.67255  Biso   1.000  C
  C101     1.0000 0.12560  0.57424  0.74166  Biso   1.000  C
  C102     1.0000 0.14725  0.73891  0.82486  Biso   1.000  C
  H71      1.0000 0.10268  0.44936  0.67028  Biso   1.000  H
  N6       1.0000 0.86765  0.88662  0.85627  Biso   1.000  N
  C103     1.0000 0.92581  0.00594  0.81458  Biso   1.000  C
  H72      1.0000 0.96308  0.52989  0.93285  Biso   1.000  H
  H73      1.0000 0.97646  0.77401  0.97999  Biso   1.000  H
  C104     1.0000 0.03867  0.78750  0.93071  Biso   1.000  C
  H74      1.0000 0.01368  0.67590  0.99419  Biso   1.000  H
  N7       1.0000 0.13230  0.88662  0.64371  Biso   1.000  N
  C105     1.0000 0.07413  0.00594  0.68540  Biso   1.000  C
  H75      1.0000 0.15227  0.54069  0.78299  Biso   1.000  H
  H76      1.0000 0.16978  0.78990  0.80925  Biso   1.000  H
  H77      1.0000 0.17155  0.69186  0.86318  Biso   1.000  H
  C106     1.0000 0.11238  0.79306  0.86820  Biso   1.000  C
  C107     1.0000 0.84195  0.97146  0.87733  Biso   1.000  C
  H78      1.0000 0.95426  0.01342  0.79217  Biso   1.000  H
  C108     1.0000 0.90177  0.09017  0.83496  Biso   1.000  C
  C109     1.0000 0.04429  0.89379  0.94258  Biso   1.000  C
  C110     1.0000 0.07427  0.73984  0.89569  Biso   1.000  C
  C111     1.0000 0.15799  0.97146  0.62266  Biso   1.000  C
  H79      1.0000 0.04567  0.01342  0.70775  Biso   1.000  H
  C112     1.0000 0.09817  0.09017  0.66502  Biso   1.000  C
  C113     1.0000 0.11591  0.89896  0.88204  Biso   1.000  C
  C114     1.0000 0.79825  0.95426  0.90812  Biso   1.000  C
  C115     1.0000 0.85825  0.07428  0.86894  Biso   1.000  C
  C116     1.0000 0.92031  0.19792  0.82192  Biso   1.000  C
  C117     1.0000 0.08261  0.94879  0.91914  Biso   1.000  C
  H80      1.0000 0.02157  0.92819  0.96695  Biso   1.000  H
  O8       1.0000 0.06787  0.63324  0.88112  Biso   1.000  O
  C118     1.0000 0.20168  0.95426  0.59180  Biso   1.000  C
  C119     1.0000 0.14169  0.07428  0.63104  Biso   1.000  C
  C120     1.0000 0.07964  0.19792  0.67806  Biso   1.000  C
  H81      1.0000 0.14145  0.93698  0.86576  Biso   1.000  H
  H82      1.0000 0.78625  0.88731  0.91185  Biso   1.000  H
  C121     1.0000 0.77282  0.03548  0.93310  Biso   1.000  C
  C122     1.0000 0.83188  0.15503  0.89655  Biso   1.000  C
  H83      1.0000 0.94986  0.19368  0.79878  Biso   1.000  H
  H84      1.0000 0.89036  0.23502  0.78525  Biso   1.000  H
  H85      1.0000 0.93245  0.23340  0.87347  Biso   1.000  H
  H86      1.0000 0.08607  0.01951  0.92826  Biso   1.000  H
  C123     1.0000 0.10260  0.56668  0.93395  Biso   1.000  C
  H87      1.0000 0.21368  0.88731  0.58807  Biso   1.000  H
  C124     1.0000 0.22713  0.03548  0.56689  Biso   1.000  C
  C125     1.0000 0.16809  0.15503  0.60337  Biso   1.000  C
  H88      1.0000 0.05009  0.19368  0.70120  Biso   1.000  H
  H89      1.0000 0.10958  0.23502  0.71467  Biso   1.000  H
  H90      1.0000 0.06750  0.23340  0.62651  Biso   1.000  H
  C126     1.0000 0.79056  0.13560  0.92814  Biso   1.000  C
  H91      1.0000 0.74368  0.02329  0.95330  Biso   1.000  H
  H92      1.0000 0.84298  0.22268  0.89318  Biso   1.000  H
  N8       1.0000 0.14010  0.60231  0.99762  Biso   1.000  N
  C127     1.0000 0.09346  0.46178  0.91265  Biso   1.000  C
  C128     1.0000 0.20939  0.13560  0.57184  Biso   1.000  C
  H93      1.0000 0.25626  0.02329  0.54668  Biso   1.000  H
  H94      1.0000 0.15697  0.22268  0.60680  Biso   1.000  H
  H95      1.0000 0.77396  0.18997  0.94669  Biso   1.000  H
  C129     1.0000 0.17337  0.52927  0.04782  Biso   1.000  C
  H96      1.0000 0.06576  0.44281  0.86569  Biso   1.000  H
  C130     1.0000 0.12528  0.38882  0.96113  Biso   1.000  C
  H97      1.0000 0.22598  0.18997  0.55329  Biso   1.000  H
  C131     1.0000 0.16708  0.42268  0.03251  Biso   1.000  C
  C132     1.0000 0.21484  0.56406  0.11663  Biso   1.000  C
  C133     1.0000 0.11719  0.27559  0.93983  Biso   1.000  C
  C134     1.0000 0.20250  0.35550  0.09037  Biso   1.000  C
  C135     1.0000 0.24816  0.49657  0.16958  Biso   1.000  C
  H98      1.0000 0.21971  0.63448  0.12618  Biso   1.000  H
  H99      1.0000 0.08758  0.26757  0.89000  Biso   1.000  H
  H100     1.0000 0.15005  0.24782  0.93267  Biso   1.000  H
  H101     1.0000 0.10877  0.23941  0.98329  Biso   1.000  H
  H102     1.0000 0.19869  0.28461  0.08259  Biso   1.000  H
  C136     1.0000 0.24180  0.39290  0.15697  Biso   1.000  C
  H103     1.0000 0.27551  0.52133  0.21482  Biso   1.000  H
  H104     1.0000 0.26450  0.34740  0.19413  Biso   1.000  H
  C137     1.0000 0.61594  0.60108  0.38207  Biso   1.000  C
  C138     1.0000 0.58263  0.55125  0.41916  Biso   1.000  C
  C139     1.0000 0.61239  0.70690  0.36817  Biso   1.000  C
  H105     1.0000 0.64148  0.56298  0.36578  Biso   1.000  H
  C140     1.0000 0.54431  0.60617  0.44261  Biso   1.000  C
  H106     1.0000 0.58609  0.48052  0.42829  Biso   1.000  H
  C141     1.0000 0.57429  0.76020  0.39572  Biso   1.000  C
  C142     1.0000 0.64728  0.76113  0.32489  Biso   1.000  C
  C143     1.0000 0.53869  0.71253  0.43073  Biso   1.000  C
  H107     1.0000 0.52159  0.57177  0.46698  Biso   1.000  H
  O9       1.0000 0.56789  0.86680  0.38115  Biso   1.000  O
  C144     1.0000 0.61639  0.82129  0.24941  Biso   1.000  C
  H108     1.0000 0.66980  0.71007  0.30928  Biso   1.000  H
  H109     1.0000 0.67157  0.80810  0.36321  Biso   1.000  H
  C145     1.0000 0.49557  0.77277  0.45388  Biso   1.000  C
  C146     1.0000 0.60263  0.93328  0.43398  Biso   1.000  C
  C147     1.0000 0.57709  0.77439  0.18494  Biso   1.000  C
  C148     1.0000 0.62563  0.92580  0.24169  Biso   1.000  C
  C149     1.0000 0.45330  0.82715  0.38421  Biso   1.000  C
  H110     1.0000 0.51369  0.82406  0.49416  Biso   1.000  H
  H111     1.0000 0.47648  0.72603  0.48002  Biso   1.000  H
  N9       1.0000 0.64012  0.89765  0.49765  Biso   1.000  N
  C150     1.0000 0.59347  0.03818  0.41261  Biso   1.000  C
  C151     1.0000 0.54669  0.82715  0.11583  Biso   1.000  C
  O10      1.0000 0.56373  0.67088  0.19363  Biso   1.000  O
  C152     1.0000 0.59608  0.98049  0.17411  Biso   1.000  C
  H112     1.0000 0.65229  0.95927  0.28301  Biso   1.000  H
  C153     1.0000 0.42289  0.77439  0.31503  Biso   1.000  C
  C154     1.0000 0.44305  0.93205  0.38776  Biso   1.000  C
  C155     1.0000 0.67334  0.97069  0.54779  Biso   1.000  C
  H113     1.0000 0.56577  0.05723  0.36566  Biso   1.000  H
  C156     1.0000 0.62531  0.11115  0.46116  Biso   1.000  C
  C157     1.0000 0.50445  0.77277  0.04610  Biso   1.000  C
  C158     1.0000 0.55694  0.93205  0.11228  Biso   1.000  C
  C159     1.0000 0.59250  0.59321  0.17258  Biso   1.000  C
  H114     1.0000 0.60270  0.05060  0.17031  Biso   1.000  H
  O11      1.0000 0.43624  0.67088  0.30634  Biso   1.000  O
  C160     1.0000 0.38359  0.82129  0.25057  Biso   1.000  C
  H115     1.0000 0.46310  0.97007  0.43288  Biso   1.000  H
  C161     1.0000 0.40390  0.98049  0.32587  Biso   1.000  C
  C162     1.0000 0.71481  0.93590  0.61659  Biso   1.000  C
  C163     1.0000 0.66707  0.07736  0.53254  Biso   1.000  C
  C164     1.0000 0.61721  0.22445  0.43986  Biso   1.000  C
  C165     1.0000 0.46128  0.71253  0.06924  Biso   1.000  C
  H116     1.0000 0.48629  0.82406  0.00582  Biso   1.000  H
  H117     1.0000 0.52351  0.72603  0.02002  Biso   1.000  H
  H118     1.0000 0.53692  0.97007  0.06710  Biso   1.000  H
  N10      1.0000 0.63231  0.61334  0.14368  Biso   1.000  N
  C166     1.0000 0.57416  0.49402  0.18543  Biso   1.000  C
  C167     1.0000 0.40748  0.59321  0.32740  Biso   1.000  C
  C168     1.0000 0.37436  0.92580  0.25834  Biso   1.000  C
  C169     1.0000 0.35270  0.76113  0.17509  Biso   1.000  C
  H119     1.0000 0.39728  0.05060  0.32966  Biso   1.000  H
  H120     1.0000 0.71969  0.86548  0.62621  Biso   1.000  H
  C170     1.0000 0.74814  0.00339  0.66961  Biso   1.000  C
  C171     1.0000 0.70247  0.14454  0.59033  Biso   1.000  C
  H121     1.0000 0.58759  0.23239  0.38996  Biso   1.000  H
  H122     1.0000 0.65007  0.25222  0.43269  Biso   1.000  H
  H123     1.0000 0.60878  0.26062  0.48326  Biso   1.000  H
  C172     1.0000 0.42568  0.76020  0.10426  Biso   1.000  C
  C173     1.0000 0.45570  0.60617  0.05736  Biso   1.000  C
  C174     1.0000 0.65801  0.52858  0.12268  Biso   1.000  C
  H124     1.0000 0.54569  0.48662  0.20778  Biso   1.000  H
  C175     1.0000 0.59818  0.40987  0.16498  Biso   1.000  C
  C176     1.0000 0.42583  0.49402  0.31460  Biso   1.000  C
  N11      1.0000 0.36767  0.61334  0.35629  Biso   1.000  N
  H125     1.0000 0.34770  0.95927  0.21702  Biso   1.000  H
  H126     1.0000 0.33018  0.71007  0.19070  Biso   1.000  H
  H127     1.0000 0.32842  0.80810  0.13682  Biso   1.000  H
  C177     1.0000 0.38758  0.70690  0.13180  Biso   1.000  C
  H128     1.0000 0.77548  0.97871  0.71479  Biso   1.000  H
  C178     1.0000 0.74177  0.10713  0.65694  Biso   1.000  C
  H129     1.0000 0.69866  0.21543  0.58256  Biso   1.000  H
  O12      1.0000 0.43210  0.86680  0.11889  Biso   1.000  O
  C179     1.0000 0.41735  0.55125  0.08081  Biso   1.000  C
  H130     1.0000 0.47838  0.57177  0.03300  Biso   1.000  H
  C180     1.0000 0.64170  0.42568  0.13101  Biso   1.000  C
  C181     1.0000 0.70170  0.54570  0.09183  Biso   1.000  C
  C182     1.0000 0.57966  0.30204  0.17809  Biso   1.000  C
  C183     1.0000 0.40179  0.40987  0.33499  Biso   1.000  C
  H131     1.0000 0.45428  0.48662  0.29220  Biso   1.000  H
  C184     1.0000 0.34196  0.52858  0.37729  Biso   1.000  C
  C185     1.0000 0.38405  0.60108  0.11797  Biso   1.000  C
  H132     1.0000 0.76447  0.15256  0.69410  Biso   1.000  H
  C186     1.0000 0.39735  0.93328  0.06599  Biso   1.000  C
  H133     1.0000 0.41389  0.48052  0.07169  Biso   1.000  H
  C187     1.0000 0.66808  0.34501  0.10340  Biso   1.000  C
  C188     1.0000 0.72714  0.46448  0.06685  Biso   1.000  C
  H134     1.0000 0.71370  0.61273  0.08809  Biso   1.000  H
  H135     1.0000 0.55010  0.30629  0.20116  Biso   1.000  H
  H136     1.0000 0.60960  0.26502  0.21469  Biso   1.000  H
  H137     1.0000 0.56751  0.26656  0.12648  Biso   1.000  H
  C189     1.0000 0.35828  0.42568  0.36897  Biso   1.000  C
  C190     1.0000 0.42032  0.30204  0.32189  Biso   1.000  C
  C191     1.0000 0.29828  0.54570  0.40815  Biso   1.000  C
  H138     1.0000 0.35850  0.56298  0.13419  Biso   1.000  H
  N12      1.0000 0.35987  0.89765  0.00239  Biso   1.000  N
  C192     1.0000 0.40651  0.03818  0.08736  Biso   1.000  C
  H139     1.0000 0.65699  0.27728  0.10683  Biso   1.000  H
  C193     1.0000 0.70941  0.36437  0.07187  Biso   1.000  C
  H140     1.0000 0.75629  0.47667  0.04671  Biso   1.000  H
  C194     1.0000 0.33190  0.34501  0.39657  Biso   1.000  C
  H141     1.0000 0.44988  0.30629  0.29881  Biso   1.000  H
  H142     1.0000 0.39038  0.26502  0.28528  Biso   1.000  H
  H143     1.0000 0.43247  0.26656  0.37350  Biso   1.000  H
  C195     1.0000 0.27284  0.46448  0.43312  Biso   1.000  C
  H144     1.0000 0.28628  0.61273  0.41188  Biso   1.000  H
  C196     1.0000 0.32659  0.97069  0.95213  Biso   1.000  C
  H145     1.0000 0.43421  0.05723  0.13431  Biso   1.000  H
  C197     1.0000 0.37467  0.11115  0.03881  Biso   1.000  C
  H146     1.0000 0.72600  0.30999  0.05332  Biso   1.000  H
  H147     1.0000 0.34300  0.27728  0.39321  Biso   1.000  H
  C198     1.0000 0.29058  0.36437  0.42816  Biso   1.000  C
  H148     1.0000 0.24369  0.47667  0.45326  Biso   1.000  H
  C199     1.0000 0.28512  0.93590  0.88332  Biso   1.000  C
  C200     1.0000 0.33287  0.07736  0.96743  Biso   1.000  C
  C201     1.0000 0.38276  0.22445  0.06012  Biso   1.000  C
  H149     1.0000 0.27399  0.30999  0.44671  Biso   1.000  H
  H150     1.0000 0.28025  0.86548  0.87377  Biso   1.000  H
  C202     1.0000 0.25180  0.00339  0.83036  Biso   1.000  C
  C203     1.0000 0.29747  0.14454  0.90964  Biso   1.000  C
  H151     1.0000 0.41239  0.23239  0.11001  Biso   1.000  H
  H152     1.0000 0.34991  0.25222  0.06728  Biso   1.000  H
  H153     1.0000 0.39120  0.26062  0.01671  Biso   1.000  H
  H154     1.0000 0.22446  0.97871  0.78518  Biso   1.000  H
  C204     1.0000 0.25815  0.10713  0.84297  Biso   1.000  C
  H155     1.0000 0.30127  0.21543  0.91735  Biso   1.000  H
  H156     1.0000 0.23547  0.15256  0.80588  Biso   1.000  H
  C205     1.0000 0.90390  0.48045  0.32587  Biso   1.000  C
  C206     1.0000 0.94305  0.43209  0.38776  Biso   1.000  C
  C207     1.0000 0.87436  0.42576  0.25834  Biso   1.000  C
  H157     1.0000 0.89728  0.55064  0.32966  Biso   1.000  H
  C208     1.0000 0.95330  0.32719  0.38421  Biso   1.000  C
  H158     1.0000 0.96310  0.47011  0.43288  Biso   1.000  H
  C209     1.0000 0.88359  0.32125  0.25057  Biso   1.000  C
  H159     1.0000 0.84770  0.45931  0.21702  Biso   1.000  H
  C210     1.0000 0.92289  0.27435  0.31503  Biso   1.000  C
  C211     1.0000 0.99557  0.27281  0.45388  Biso   1.000  C
  C212     1.0000 0.85270  0.26109  0.17509  Biso   1.000  C
  O13      1.0000 0.93624  0.17092  0.30634  Biso   1.000  O
  H160     1.0000 0.97648  0.22599  0.48002  Biso   1.000  H
  C213     1.0000 0.03869  0.21250  0.43073  Biso   1.000  C
  H161     1.0000 0.01369  0.32410  0.49416  Biso   1.000  H
  H162     1.0000 0.83018  0.21010  0.19070  Biso   1.000  H
  H163     1.0000 0.82842  0.30814  0.13682  Biso   1.000  H
  C214     1.0000 0.88758  0.20694  0.13180  Biso   1.000  C
  C215     1.0000 0.90748  0.09325  0.32740  Biso   1.000  C
  C216     1.0000 0.04431  0.10621  0.44261  Biso   1.000  C
  C217     1.0000 0.07429  0.26016  0.39572  Biso   1.000  C
  C218     1.0000 0.88405  0.10104  0.11797  Biso   1.000  C
  C219     1.0000 0.92568  0.26016  0.10426  Biso   1.000  C
  N13      1.0000 0.86767  0.11338  0.35629  Biso   1.000  N
  C220     1.0000 0.92583  0.99406  0.31460  Biso   1.000  C
  C221     1.0000 0.08263  0.05121  0.41916  Biso   1.000  C
  H164     1.0000 0.02159  0.07181  0.46698  Biso   1.000  H
  O14      1.0000 0.06789  0.36676  0.38115  Biso   1.000  O
  C222     1.0000 0.11239  0.20694  0.36817  Biso   1.000  C
  H165     1.0000 0.85850  0.06302  0.13419  Biso   1.000  H
  C223     1.0000 0.91735  0.05121  0.08081  Biso   1.000  C
  O15      1.0000 0.93210  0.36676  0.11889  Biso   1.000  O
  C224     1.0000 0.96128  0.21250  0.06924  Biso   1.000  C
  C225     1.0000 0.84196  0.02854  0.37729  Biso   1.000  C
  C226     1.0000 0.90179  0.90983  0.33499  Biso   1.000  C
  H166     1.0000 0.95428  0.98658  0.29220  Biso   1.000  H
  H167     1.0000 0.08609  0.98049  0.42829  Biso   1.000  H
  C227     1.0000 0.11594  0.10104  0.38207  Biso   1.000  C
  C228     1.0000 0.10263  0.43332  0.43398  Biso   1.000  C
  C229     1.0000 0.14728  0.26109  0.32489  Biso   1.000  C
  C230     1.0000 0.95570  0.10621  0.05736  Biso   1.000  C
  H168     1.0000 0.91389  0.98049  0.07169  Biso   1.000  H
  C231     1.0000 0.89735  0.43332  0.06599  Biso   1.000  C
  C232     1.0000 0.00445  0.27281  0.04610  Biso   1.000  C
  C233     1.0000 0.79828  0.04574  0.40815  Biso   1.000  C
  C234     1.0000 0.85828  0.92572  0.36897  Biso   1.000  C
  C235     1.0000 0.92032  0.80208  0.32189  Biso   1.000  C
  H169     1.0000 0.14148  0.06302  0.36578  Biso   1.000  H
  N14      1.0000 0.14012  0.39769  0.49765  Biso   1.000  N
  C236     1.0000 0.09347  0.53822  0.41261  Biso   1.000  C
  C237     1.0000 0.11639  0.32125  0.24941  Biso   1.000  C
  H170     1.0000 0.16980  0.21010  0.30928  Biso   1.000  H
  H171     1.0000 0.17157  0.30814  0.36321  Biso   1.000  H
  H172     1.0000 0.97838  0.07181  0.03300  Biso   1.000  H
  N15      1.0000 0.85987  0.39769  0.00239  Biso   1.000  N
  C238     1.0000 0.90651  0.53822  0.08736  Biso   1.000  C
  H173     1.0000 0.98629  0.32410  0.00582  Biso   1.000  H
  C239     1.0000 0.04669  0.32719  0.11583  Biso   1.000  C
  H174     1.0000 0.02351  0.22599  0.02002  Biso   1.000  H
  H175     1.0000 0.78628  0.11269  0.41188  Biso   1.000  H
  C240     1.0000 0.77284  0.96452  0.43312  Biso   1.000  C
  C241     1.0000 0.83190  0.84497  0.39657  Biso   1.000  C
  H176     1.0000 0.94988  0.80632  0.29881  Biso   1.000  H
  H177     1.0000 0.89038  0.76498  0.28528  Biso   1.000  H
  H178     1.0000 0.93247  0.76660  0.37350  Biso   1.000  H
  C242     1.0000 0.17334  0.47073  0.54779  Biso   1.000  C
  H179     1.0000 0.06577  0.55719  0.36566  Biso   1.000  H
  C243     1.0000 0.12531  0.61118  0.46116  Biso   1.000  C
  C244     1.0000 0.07709  0.27435  0.18494  Biso   1.000  C
  C245     1.0000 0.12563  0.42576  0.24169  Biso   1.000  C
  C246     1.0000 0.82659  0.47073  0.95213  Biso   1.000  C
  H180     1.0000 0.93421  0.55719  0.13431  Biso   1.000  H
  C247     1.0000 0.87467  0.61118  0.03881  Biso   1.000  C
  C248     1.0000 0.05694  0.43209  0.11228  Biso   1.000  C
  C249     1.0000 0.79058  0.86440  0.42816  Biso   1.000  C
  H181     1.0000 0.74369  0.97671  0.45326  Biso   1.000  H
  H182     1.0000 0.84300  0.77732  0.39321  Biso   1.000  H
  C250     1.0000 0.16707  0.57732  0.53254  Biso   1.000  C
  C251     1.0000 0.21481  0.43594  0.61659  Biso   1.000  C
  C252     1.0000 0.11721  0.72441  0.43986  Biso   1.000  C
  O16      1.0000 0.06373  0.17092  0.19363  Biso   1.000  O
  C253     1.0000 0.09608  0.48045  0.17411  Biso   1.000  C
  H183     1.0000 0.15229  0.45931  0.28301  Biso   1.000  H
  C254     1.0000 0.83287  0.57732  0.96743  Biso   1.000  C
  C255     1.0000 0.78512  0.43594  0.88332  Biso   1.000  C
  C256     1.0000 0.88276  0.72441  0.06012  Biso   1.000  C
  H184     1.0000 0.03692  0.47011  0.06710  Biso   1.000  H
  H185     1.0000 0.77399  0.81003  0.44671  Biso   1.000  H
  C257     1.0000 0.20247  0.64450  0.59033  Biso   1.000  C
  C258     1.0000 0.24814  0.50343  0.66961  Biso   1.000  C
  H186     1.0000 0.21969  0.36552  0.62621  Biso   1.000  H
  H187     1.0000 0.08759  0.73243  0.38996  Biso   1.000  H
  H188     1.0000 0.15007  0.75218  0.43269  Biso   1.000  H
  H189     1.0000 0.10878  0.76059  0.48326  Biso   1.000  H
  C259     1.0000 0.09250  0.09325  0.17258  Biso   1.000  C
  H190     1.0000 0.10270  0.55064  0.17031  Biso   1.000  H
  C260     1.0000 0.79747  0.64450  0.90964  Biso   1.000  C
  C261     1.0000 0.75180  0.50343  0.83036  Biso   1.000  C
  H191     1.0000 0.78025  0.36552  0.87377  Biso   1.000  H
  H192     1.0000 0.91239  0.73243  0.11001  Biso   1.000  H
  H193     1.0000 0.84991  0.75218  0.06728  Biso   1.000  H
  H194     1.0000 0.89120  0.76059  0.01671  Biso   1.000  H
  H195     1.0000 0.19866  0.71539  0.58256  Biso   1.000  H
  C262     1.0000 0.24177  0.60710  0.65694  Biso   1.000  C
  H196     1.0000 0.27548  0.47867  0.71479  Biso   1.000  H
  C263     1.0000 0.07416  0.99406  0.18543  Biso   1.000  C
  N16      1.0000 0.13231  0.11338  0.14368  Biso   1.000  N
  H197     1.0000 0.80127  0.71539  0.91735  Biso   1.000  H
  C264     1.0000 0.75815  0.60710  0.84297  Biso   1.000  C
  H198     1.0000 0.72446  0.47867  0.78518  Biso   1.000  H
  H199     1.0000 0.26447  0.65260  0.69410  Biso   1.000  H
  H200     1.0000 0.04569  0.98658  0.20778  Biso   1.000  H
  C265     1.0000 0.09818  0.90983  0.16498  Biso   1.000  C
  C266     1.0000 0.15801  0.02854  0.12268  Biso   1.000  C
  H201     1.0000 0.73547  0.65260  0.80588  Biso   1.000  H
  C267     1.0000 0.14170  0.92572  0.13101  Biso   1.000  C
  C268     1.0000 0.07966  0.80208  0.17809  Biso   1.000  C
  C269     1.0000 0.20170  0.04574  0.09183  Biso   1.000  C
  C270     1.0000 0.16808  0.84497  0.10340  Biso   1.000  C
  H202     1.0000 0.05010  0.80632  0.20116  Biso   1.000  H
  H203     1.0000 0.10960  0.76498  0.21469  Biso   1.000  H
  H204     1.0000 0.06751  0.76660  0.12648  Biso   1.000  H
  C271     1.0000 0.22714  0.96452  0.06685  Biso   1.000  C
  H205     1.0000 0.21370  0.11269  0.08809  Biso   1.000  H
  H206     1.0000 0.15699  0.77732  0.10683  Biso   1.000  H
  C272     1.0000 0.20941  0.86440  0.07187  Biso   1.000  C
  H207     1.0000 0.25629  0.97671  0.04671  Biso   1.000  H
  H208     1.0000 0.22600  0.81003  0.05332  Biso   1.000  H
