data_image0
_cell_length_a       9.703
_cell_length_b       17.44
_cell_length_c       21.669
_cell_angle_alpha    101.88
_cell_angle_beta     96.62
_cell_angle_gamma    92.92

_symmetry_space_group_name_H-M    "P 1"
_symmetry_int_tables_number       1

loop_
  _symmetry_equiv_pos_as_xyz
  'x, y, z'

loop_
  _atom_site_label
  _atom_site_occupancy
  _atom_site_fract_x
  _atom_site_fract_y
  _atom_site_fract_z
  _atom_site_thermal_displace_type
  _atom_site_B_iso_or_equiv
  _atom_site_type_symbol
  C1       1.0000 0.63694  0.56800  0.44059  Biso   1.000  C
  C2       1.0000 0.64955  0.63400  0.49490  Biso   1.000  C
  H1       1.0000 0.55971  0.53381  0.44658  Biso   1.000  H
  H2       1.0000 0.71965  0.54010  0.44711  Biso   1.000  H
  C3       1.0000 0.62036  0.56824  0.38010  Biso   1.000  C
  C4       1.0000 0.65768  0.63163  0.56537  Biso   1.000  C
  H3       1.0000 0.73204  0.66580  0.49138  Biso   1.000  H
  H4       1.0000 0.57140  0.66463  0.48672  Biso   1.000  H
  H5       1.0000 0.70957  0.57531  0.36622  Biso   1.000  H
  H6       1.0000 0.57409  0.51903  0.35680  Biso   1.000  H
  H7       1.0000 0.56513  0.61029  0.37278  Biso   1.000  H
  C5       1.0000 0.66566  0.70690  0.60760  Biso   1.000  C
  H8       1.0000 0.73889  0.60481  0.57688  Biso   1.000  H
  H9       1.0000 0.57629  0.60089  0.57160  Biso   1.000  H
  C6       1.0000 0.67731  0.70749  0.68188  Biso   1.000  C
  H10      1.0000 0.74587  0.73793  0.60028  Biso   1.000  H
  H11      1.0000 0.58371  0.73323  0.59619  Biso   1.000  H
  C7       1.0000 0.64789  0.78515  0.72012  Biso   1.000  C
  H12      1.0000 0.77023  0.69521  0.69648  Biso   1.000  H
  H13      1.0000 0.61184  0.66694  0.68859  Biso   1.000  H
  C8       1.0000 0.61100  0.78312  0.78731  Biso   1.000  C
  H14      1.0000 0.72898  0.82162  0.72430  Biso   1.000  H
  H15      1.0000 0.57140  0.80521  0.69691  Biso   1.000  H
  C9       1.0000 0.49115  0.72081  0.78070  Biso   1.000  C
  C10      1.0000 0.57165  0.86285  0.82269  Biso   1.000  C
  H16      1.0000 0.69185  0.76781  0.81218  Biso   1.000  H
  C11      1.0000 0.35626  0.73466  0.75702  Biso   1.000  C
  C12      1.0000 0.50977  0.64785  0.79492  Biso   1.000  C
  C13      1.0000 0.52357  0.87015  0.88152  Biso   1.000  C
  C14      1.0000 0.57106  0.93014  0.79768  Biso   1.000  C
  C15      1.0000 0.24157  0.67923  0.74518  Biso   1.000  C
  H17      1.0000 0.34187  0.78400  0.74841  Biso   1.000  H
  C16      1.0000 0.39895  0.59154  0.78560  Biso   1.000  C
  O1       1.0000 0.64036  0.63675  0.82050  Biso   1.000  O
  C17      1.0000 0.47714  0.93885  0.91452  Biso   1.000  C
  O2       1.0000 0.52775  0.80365  0.91019  Biso   1.000  O
  H18      1.0000 0.60442  0.92775  0.75878  Biso   1.000  H
  C18      1.0000 0.52341  0.00148  0.82740  Biso   1.000  C
  C19      1.0000 0.10294  0.69805  0.71641  Biso   1.000  C
  C20      1.0000 0.26925  0.60592  0.76068  Biso   1.000  C
  H19      1.0000 0.41301  0.54332  0.79649  Biso   1.000  H
  C21      1.0000 0.69022  0.56081  0.80101  Biso   1.000  C
  H20      1.0000 0.44598  0.94175  0.95380  Biso   1.000  H
  C22      1.0000 0.47941  0.00418  0.88532  Biso   1.000  C
  C23      1.0000 0.40510  0.78371  0.93449  Biso   1.000  C
  C24      1.0000 0.51135  0.07108  0.79501  Biso   1.000  C
  C25      1.0000 0.10119  0.69721  0.64508  Biso   1.000  C
  H21      1.0000 0.03394  0.65672  0.72012  Biso   1.000  H
  C26      1.0000 0.06134  0.77675  0.75421  Biso   1.000  C
  O3       1.0000 0.15274  0.55264  0.74979  Biso   1.000  O
  H22      1.0000 0.67848  0.54614  0.75540  Biso   1.000  H
  H23      1.0000 0.78712  0.56253  0.81689  Biso   1.000  H
  H24      1.0000 0.63878  0.52305  0.81760  Biso   1.000  H
  O4       1.0000 0.43993  0.07569  0.91828  Biso   1.000  O
  H25      1.0000 0.39072  0.82532  0.96992  Biso   1.000  H
  H26      1.0000 0.32622  0.77961  0.90177  Biso   1.000  H
  C27      1.0000 0.41137  0.70900  0.95580  Biso   1.000  C
  C28      1.0000 0.36217  0.09308  0.78940  Biso   1.000  C
  H27      1.0000 0.56669  0.11571  0.82359  Biso   1.000  H
  C29      1.0000 0.56929  0.05972  0.73191  Biso   1.000  C
  C30      1.0000 0.12794  0.61471  0.60898  Biso   1.000  C
  H28      1.0000 0.17238  0.73533  0.63942  Biso   1.000  H
  H29      1.0000 0.01157  0.71162  0.62810  Biso   1.000  H
  C31      1.0000 0.02739  0.78300  0.81427  Biso   1.000  C
  C32      1.0000 0.05494  0.84442  0.72692  Biso   1.000  C
  C33      1.0000 0.16270  0.47515  0.75921  Biso   1.000  C
  C34      1.0000 0.30578  0.07408  0.93701  Biso   1.000  C
  N1       1.0000 0.52863  0.67316  0.94961  Biso   1.000  N
  O5       1.0000 0.31336  0.68204  0.97938  Biso   1.000  O
  C35      1.0000 0.25309  0.03610  0.76710  Biso   1.000  C
  C36      1.0000 0.32495  0.17102  0.80648  Biso   1.000  C
  H30      1.0000 0.52545  0.01111  0.70499  Biso   1.000  H
  H31      1.0000 0.66797  0.05293  0.73971  Biso   1.000  H
  C37      1.0000 0.55190  0.12439  0.69501  Biso   1.000  C
  C38      1.0000 0.06977  0.60333  0.53841  Biso   1.000  C
  H32      1.0000 0.08361  0.57513  0.62739  Biso   1.000  H
  H33      1.0000 0.22714  0.60853  0.61298  Biso   1.000  H
  O6       1.0000 0.02780  0.71604  0.83729  Biso   1.000  O
  C39      1.0000 0.98704  0.85453  0.84908  Biso   1.000  C
  C40      1.0000 0.01205  0.91612  0.76020  Biso   1.000  C
  H34      1.0000 0.07936  0.84151  0.68631  Biso   1.000  H
  H35      1.0000 0.09753  0.43984  0.72720  Biso   1.000  H
  H36      1.0000 0.25567  0.45965  0.75312  Biso   1.000  H
  C41      1.0000 0.13430  0.46624  0.82141  Biso   1.000  C
  H37      1.0000 0.30110  0.04060  0.96678  Biso   1.000  H
  H38      1.0000 0.28641  0.12631  0.95651  Biso   1.000  H
  H39      1.0000 0.23855  0.05429  0.90030  Biso   1.000  H
  H40      1.0000 0.59727  0.69553  0.93649  Biso   1.000  H
  N2       1.0000 0.54091  0.59721  0.96469  Biso   1.000  N
  C42      1.0000 0.11051  0.05241  0.75949  Biso   1.000  C
  H41      1.0000 0.27443  0.98402  0.75640  Biso   1.000  H
  C43      1.0000 0.18746  0.18911  0.80281  Biso   1.000  C
  O7       1.0000 0.43609  0.22823  0.83030  Biso   1.000  O
  H42      1.0000 0.59622  0.17350  0.72078  Biso   1.000  H
  H43      1.0000 0.45376  0.13108  0.68531  Biso   1.000  H
  C44      1.0000 0.61617  0.10443  0.63390  Biso   1.000  C
  C45      1.0000 0.17474  0.64070  0.50289  Biso   1.000  C
  H44      1.0000 0.05231  0.54773  0.51958  Biso   1.000  H
  H45      1.0000 0.98226  0.62763  0.53451  Biso   1.000  H
  C46      1.0000 0.98008  0.72000  0.89911  Biso   1.000  C
  H46      1.0000 0.96594  0.85823  0.89031  Biso   1.000  H
  C47      1.0000 0.97938  0.91855  0.82098  Biso   1.000  C
  C48      1.0000 0.99801  0.98861  0.73072  Biso   1.000  C
  N3       1.0000 0.11085  0.53044  0.86240  Biso   1.000  N
  O8       1.0000 0.12243  0.39881  0.83567  Biso   1.000  O
  H47      1.0000 0.47246  0.57472  0.97781  Biso   1.000  H
  H48      1.0000 0.61671  0.57431  0.96060  Biso   1.000  H
  C49      1.0000 0.08276  0.13040  0.77851  Biso   1.000  C
  H49      1.0000 0.16566  0.24060  0.81670  Biso   1.000  H
  C50      1.0000 0.40407  0.30688  0.84010  Biso   1.000  C
  H50      1.0000 0.58930  0.04958  0.61469  Biso   1.000  H
  H51      1.0000 0.71643  0.10928  0.64489  Biso   1.000  H
  C51      1.0000 0.58235  0.14990  0.58601  Biso   1.000  C
  C52      1.0000 0.14813  0.60264  0.43151  Biso   1.000  C
  H52      1.0000 0.16495  0.69679  0.50897  Biso   1.000  H
  H53      1.0000 0.26871  0.63313  0.51991  Biso   1.000  H
  H54      1.0000 0.02956  0.76351  0.92931  Biso   1.000  H
  H55      1.0000 0.88214  0.72702  0.89569  Biso   1.000  H
  H56      1.0000 0.99689  0.67211  0.91300  Biso   1.000  H
  O9       1.0000 0.93855  0.98984  0.85118  Biso   1.000  O
  C53      1.0000 0.98582  0.97353  0.65830  Biso   1.000  C
  H57      1.0000 0.91063  0.01001  0.74199  Biso   1.000  H
  H58      1.0000 0.10702  0.57413  0.84999  Biso   1.000  H
  N4       1.0000 0.09187  0.52924  0.92641  Biso   1.000  N
  O10      1.0000 0.94594  0.14580  0.77119  Biso   1.000  O
  H59      1.0000 0.35604  0.31661  0.80101  Biso   1.000  H
  H60      1.0000 0.34172  0.31652  0.87229  Biso   1.000  H
  C54      1.0000 0.52909  0.36159  0.86031  Biso   1.000  C
  H61      1.0000 0.48233  0.15330  0.58021  Biso   1.000  H
  H62      1.0000 0.62542  0.20281  0.60161  Biso   1.000  H
  C55      1.0000 0.63190  0.11417  0.51739  Biso   1.000  C
  C56      1.0000 0.23281  0.65001  0.39408  Biso   1.000  C
  H63      1.0000 0.04979  0.60132  0.41629  Biso   1.000  H
  H64      1.0000 0.17486  0.54900  0.42471  Biso   1.000  H
  C57      1.0000 0.89746  0.99455  0.91409  Biso   1.000  C
  H65      1.0000 0.06813  0.94924  0.64479  Biso   1.000  H
  C58      1.0000 0.85965  0.92233  0.62439  Biso   1.000  C
  H66      1.0000 0.98412  0.02360  0.64550  Biso   1.000  H
  H67      1.0000 0.09529  0.48590  0.93948  Biso   1.000  H
  H68      1.0000 0.07678  0.57185  0.95190  Biso   1.000  H
  C59      1.0000 0.91087  0.22512  0.77889  Biso   1.000  C
  N5       1.0000 0.64913  0.33401  0.87001  Biso   1.000  N
  O11      1.0000 0.51881  0.43273  0.87272  Biso   1.000  O
  H69      1.0000 0.58975  0.06098  0.50270  Biso   1.000  H
  H70      1.0000 0.73189  0.11098  0.52381  Biso   1.000  H
  C60      1.0000 0.60328  0.15229  0.47231  Biso   1.000  C
  C61      1.0000 0.21175  0.60958  0.32308  Biso   1.000  C
  H71      1.0000 0.20282  0.70289  0.39931  Biso   1.000  H
  H72      1.0000 0.33074  0.65339  0.41058  Biso   1.000  H
  H73      1.0000 0.82145  0.95541  0.91219  Biso   1.000  H
  H74      1.0000 0.97510  0.98392  0.94281  Biso   1.000  H
  C62      1.0000 0.85300  0.07403  0.93811  Biso   1.000  C
  H75      1.0000 0.86738  0.87045  0.63361  Biso   1.000  H
  H76      1.0000 0.77876  0.94332  0.64217  Biso   1.000  H
  C63      1.0000 0.83328  0.91309  0.55368  Biso   1.000  C
  H77      1.0000 0.93317  0.24550  0.74299  Biso   1.000  H
  H78      1.0000 0.81316  0.22729  0.78170  Biso   1.000  H
  H79      1.0000 0.96270  0.25609  0.81708  Biso   1.000  H
  H80      1.0000 0.65389  0.28392  0.86188  Biso   1.000  H
  N6       1.0000 0.77073  0.38212  0.89288  Biso   1.000  N
  H81      1.0000 0.50303  0.15158  0.46308  Biso   1.000  H
  H82      1.0000 0.63879  0.20672  0.48800  Biso   1.000  H
  C64      1.0000 0.66051  0.12161  0.41130  Biso   1.000  C
  H83      1.0000 0.13772  0.63220  0.30130  Biso   1.000  H
  H84      1.0000 0.29603  0.61701  0.30511  Biso   1.000  H
  H85      1.0000 0.18826  0.55440  0.31871  Biso   1.000  H
  N7       1.0000 0.84116  0.12270  0.89802  Biso   1.000  N
  O12      1.0000 0.82224  0.09111  0.99351  Biso   1.000  O
  H86      1.0000 0.83691  0.96525  0.54440  Biso   1.000  H
  H87      1.0000 0.73937  0.88960  0.53950  Biso   1.000  H
  C65      1.0000 0.91967  0.87019  0.51858  Biso   1.000  C
  H88      1.0000 0.76799  0.43232  0.90120  Biso   1.000  H
  H89      1.0000 0.84867  0.36161  0.89868  Biso   1.000  H
  H90      1.0000 0.59884  0.07912  0.38581  Biso   1.000  H
  H91      1.0000 0.66870  0.16299  0.38838  Biso   1.000  H
  H92      1.0000 0.75053  0.10308  0.42048  Biso   1.000  H
  H93      1.0000 0.86526  0.10821  0.86069  Biso   1.000  H
  N8       1.0000 0.79036  0.19722  0.91518  Biso   1.000  N
  H94      1.0000 0.01482  0.89190  0.53299  Biso   1.000  H
  H95      1.0000 0.91270  0.81680  0.52491  Biso   1.000  H
  C66      1.0000 0.88231  0.86939  0.44221  Biso   1.000  C
  H96      1.0000 0.76578  0.21244  0.95242  Biso   1.000  H
  H97      1.0000 0.78377  0.22753  0.88841  Biso   1.000  H
  H98      1.0000 0.96144  0.88973  0.42528  Biso   1.000  H
  H99      1.0000 0.80365  0.89980  0.43450  Biso   1.000  H
  C67      1.0000 0.85091  0.79150  0.41681  Biso   1.000  C
  H100     1.0000 0.77736  0.77482  0.43888  Biso   1.000  H
  H101     1.0000 0.93194  0.76511  0.42908  Biso   1.000  H
  C68      1.0000 0.81198  0.76093  0.35490  Biso   1.000  C
  H102     1.0000 0.83418  0.79880  0.33041  Biso   1.000  H
  H103     1.0000 0.86031  0.71473  0.34211  Biso   1.000  H
  H104     1.0000 0.71343  0.74710  0.34772  Biso   1.000  H
  C69      1.0000 0.36311  0.43203  0.55938  Biso   1.000  C
  C70      1.0000 0.35050  0.36603  0.50508  Biso   1.000  C
  H105     1.0000 0.44024  0.46622  0.55339  Biso   1.000  H
  H106     1.0000 0.28041  0.45989  0.55292  Biso   1.000  H
  C71      1.0000 0.37970  0.43181  0.61992  Biso   1.000  C
  C72      1.0000 0.34226  0.36840  0.43460  Biso   1.000  C
  H107     1.0000 0.26801  0.33424  0.50859  Biso   1.000  H
  H108     1.0000 0.42855  0.33542  0.51330  Biso   1.000  H
  H109     1.0000 0.29039  0.42473  0.63381  Biso   1.000  H
  H110     1.0000 0.42586  0.48101  0.64322  Biso   1.000  H
  H111     1.0000 0.43481  0.38969  0.62720  Biso   1.000  H
  C73      1.0000 0.33430  0.29314  0.39242  Biso   1.000  C
  H112     1.0000 0.26106  0.39522  0.42309  Biso   1.000  H
  H113     1.0000 0.42366  0.39909  0.42842  Biso   1.000  H
  C74      1.0000 0.32273  0.29249  0.31809  Biso   1.000  C
  H114     1.0000 0.25408  0.26211  0.39969  Biso   1.000  H
  H115     1.0000 0.41623  0.26680  0.40378  Biso   1.000  H
  C75      1.0000 0.35207  0.21489  0.27991  Biso   1.000  C
  H116     1.0000 0.22972  0.30483  0.30349  Biso   1.000  H
  H117     1.0000 0.38811  0.33309  0.31139  Biso   1.000  H
  C76      1.0000 0.38896  0.21692  0.21271  Biso   1.000  C
  H118     1.0000 0.27098  0.17842  0.27572  Biso   1.000  H
  H119     1.0000 0.42856  0.19484  0.30311  Biso   1.000  H
  C77      1.0000 0.42830  0.13719  0.17728  Biso   1.000  C
  H120     1.0000 0.30809  0.23222  0.18779  Biso   1.000  H
  C78      1.0000 0.50881  0.27924  0.21932  Biso   1.000  C
  C79      1.0000 0.47639  0.12989  0.11851  Biso   1.000  C
  C80      1.0000 0.42888  0.06989  0.20230  Biso   1.000  C
  C81      1.0000 0.49018  0.35219  0.20510  Biso   1.000  C
  C82      1.0000 0.64370  0.26539  0.24300  Biso   1.000  C
  C83      1.0000 0.52293  0.06119  0.08550  Biso   1.000  C
  O13      1.0000 0.47220  0.19638  0.08978  Biso   1.000  O
  H121     1.0000 0.39552  0.07229  0.24120  Biso   1.000  H
  C84      1.0000 0.47654  0.99851  0.17262  Biso   1.000  C
  C85      1.0000 0.60101  0.40850  0.21442  Biso   1.000  C
  O14      1.0000 0.35960  0.36330  0.17952  Biso   1.000  O
  C86      1.0000 0.75837  0.32080  0.25480  Biso   1.000  C
  H122     1.0000 0.65809  0.21599  0.25161  Biso   1.000  H
  H123     1.0000 0.55398  0.05830  0.04622  Biso   1.000  H
  C87      1.0000 0.52054  0.99581  0.11470  Biso   1.000  C
  C88      1.0000 0.59495  0.21633  0.06548  Biso   1.000  C
  C89      1.0000 0.48861  0.92891  0.20501  Biso   1.000  C
  H124     1.0000 0.58694  0.45672  0.20349  Biso   1.000  H
  C90      1.0000 0.73069  0.39411  0.23929  Biso   1.000  C
  C91      1.0000 0.30974  0.43923  0.19902  Biso   1.000  C
  C92      1.0000 0.89702  0.30199  0.28361  Biso   1.000  C
  O15      1.0000 0.56002  0.92435  0.08170  Biso   1.000  O
  H125     1.0000 0.60924  0.17473  0.03010  Biso   1.000  H
  H126     1.0000 0.67372  0.22042  0.09820  Biso   1.000  H
  C93      1.0000 0.58867  0.29097  0.04418  Biso   1.000  C
  C94      1.0000 0.63789  0.90691  0.21062  Biso   1.000  C
  H127     1.0000 0.43325  0.88433  0.17638  Biso   1.000  H
  C95      1.0000 0.43067  0.94033  0.26811  Biso   1.000  C
  O16      1.0000 0.84721  0.44739  0.25018  Biso   1.000  O
  H128     1.0000 0.32148  0.45390  0.24462  Biso   1.000  H
  H129     1.0000 0.21283  0.43750  0.18308  Biso   1.000  H
  H130     1.0000 0.36128  0.47700  0.18242  Biso   1.000  H
  H131     1.0000 0.96602  0.34333  0.27991  Biso   1.000  H
  C96      1.0000 0.89875  0.30283  0.35490  Biso   1.000  C
  C97      1.0000 0.93862  0.22330  0.24581  Biso   1.000  C
  C98      1.0000 0.69417  0.92591  0.06301  Biso   1.000  C
  N9       1.0000 0.47133  0.32689  0.05041  Biso   1.000  N
  O17      1.0000 0.68659  0.31799  0.02059  Biso   1.000  O
  C99      1.0000 0.67499  0.82902  0.19350  Biso   1.000  C
  C100     1.0000 0.74686  0.96395  0.23292  Biso   1.000  C
  H132     1.0000 0.47450  0.98893  0.29498  Biso   1.000  H
  H133     1.0000 0.33199  0.94712  0.26031  Biso   1.000  H
  C101     1.0000 0.44806  0.87566  0.30501  Biso   1.000  C
  C102     1.0000 0.83726  0.52490  0.24082  Biso   1.000  C
  H134     1.0000 0.82758  0.26472  0.36061  Biso   1.000  H
  H135     1.0000 0.98838  0.28841  0.37188  Biso   1.000  H
  C103     1.0000 0.87200  0.38532  0.39099  Biso   1.000  C
  C104     1.0000 0.97256  0.21703  0.18570  Biso   1.000  C
  C105     1.0000 0.94512  0.15563  0.27310  Biso   1.000  C
  H136     1.0000 0.69884  0.95944  0.03319  Biso   1.000  H
  H137     1.0000 0.71354  0.87374  0.04351  Biso   1.000  H
  H138     1.0000 0.76151  0.94575  0.09972  Biso   1.000  H
  H139     1.0000 0.40277  0.30450  0.06349  Biso   1.000  H
  N10      1.0000 0.45904  0.40282  0.03529  Biso   1.000  N
  C106     1.0000 0.81250  0.81093  0.19721  Biso   1.000  C
  O18      1.0000 0.56398  0.77182  0.16972  Biso   1.000  O
  H140     1.0000 0.72553  0.01603  0.24362  Biso   1.000  H
  C107     1.0000 0.88944  0.94763  0.24048  Biso   1.000  C
  H141     1.0000 0.40372  0.82653  0.27919  Biso   1.000  H
  H142     1.0000 0.54619  0.86891  0.31472  Biso   1.000  H
  C108     1.0000 0.38379  0.89562  0.36612  Biso   1.000  C
  H143     1.0000 0.90242  0.56021  0.27282  Biso   1.000  H
  H144     1.0000 0.74429  0.54040  0.24690  Biso   1.000  H
  C109     1.0000 0.86565  0.53381  0.17861  Biso   1.000  C
  H145     1.0000 0.91644  0.42490  0.37259  Biso   1.000  H
  H146     1.0000 0.77281  0.39150  0.38700  Biso   1.000  H
  C110     1.0000 0.93019  0.39671  0.46161  Biso   1.000  C
  O19      1.0000 0.97225  0.28399  0.16268  Biso   1.000  O
  C111     1.0000 0.01290  0.14550  0.15089  Biso   1.000  C
  C112     1.0000 0.98791  0.08392  0.23982  Biso   1.000  C
  H147     1.0000 0.92060  0.15853  0.31372  Biso   1.000  H
  H148     1.0000 0.52760  0.42532  0.02221  Biso   1.000  H
  H149     1.0000 0.38325  0.42573  0.03942  Biso   1.000  H
  C113     1.0000 0.91719  0.86965  0.22151  Biso   1.000  C
  H150     1.0000 0.83430  0.75945  0.18332  Biso   1.000  H
  C114     1.0000 0.59588  0.69315  0.15988  Biso   1.000  C
  C115     1.0000 0.00195  0.01144  0.26930  Biso   1.000  C
  H151     1.0000 0.41064  0.95045  0.38529  Biso   1.000  H
  H152     1.0000 0.28352  0.89076  0.35509  Biso   1.000  H
  C116     1.0000 0.41761  0.85015  0.41401  Biso   1.000  C
  N11      1.0000 0.88911  0.46960  0.13762  Biso   1.000  N
  O20      1.0000 0.87752  0.60123  0.16430  Biso   1.000  O
  H153     1.0000 0.94764  0.45231  0.48039  Biso   1.000  H
  C117     1.0000 0.82531  0.35933  0.49709  Biso   1.000  C
  H154     1.0000 0.01770  0.37242  0.46551  Biso   1.000  H
  C118     1.0000 0.01987  0.27998  0.10091  Biso   1.000  C
  H155     1.0000 0.03402  0.14181  0.10971  Biso   1.000  H
  C119     1.0000 0.02056  0.08149  0.17899  Biso   1.000  C
  O21      1.0000 0.05401  0.85423  0.22878  Biso   1.000  O
  H156     1.0000 0.64392  0.68344  0.19902  Biso   1.000  H
  H157     1.0000 0.65823  0.68351  0.12768  Biso   1.000  H
  C120     1.0000 0.47097  0.63846  0.13971  Biso   1.000  C
  H158     1.0000 0.08931  0.99002  0.25798  Biso   1.000  H
  C121     1.0000 0.01413  0.02651  0.34168  Biso   1.000  C
  H159     1.0000 0.51763  0.84674  0.41981  Biso   1.000  H
  H160     1.0000 0.37464  0.79723  0.39841  Biso   1.000  H
  C122     1.0000 0.36804  0.88580  0.48258  Biso   1.000  C
  H161     1.0000 0.89293  0.42590  0.14999  Biso   1.000  H
  N12      1.0000 0.90819  0.47081  0.07361  Biso   1.000  N
  H162     1.0000 0.83510  0.30324  0.49100  Biso   1.000  H
  H163     1.0000 0.73125  0.36691  0.48011  Biso   1.000  H
  C123     1.0000 0.85183  0.39741  0.56851  Biso   1.000  C
  H164     1.0000 0.97039  0.23648  0.07071  Biso   1.000  H
  H165     1.0000 0.11781  0.27301  0.10429  Biso   1.000  H
  H166     1.0000 0.00305  0.32792  0.08698  Biso   1.000  H
  O22      1.0000 0.06140  0.01020  0.14880  Biso   1.000  O
  C124     1.0000 0.08908  0.77492  0.22108  Biso   1.000  C
  N13      1.0000 0.35083  0.66604  0.13001  Biso   1.000  N
  O23      1.0000 0.48125  0.56732  0.12730  Biso   1.000  O
  H167     1.0000 0.93182  0.05080  0.35518  Biso   1.000  H
  H168     1.0000 0.01584  0.97644  0.35452  Biso   1.000  H
  C125     1.0000 0.14040  0.07771  0.37558  Biso   1.000  C
  H169     1.0000 0.41019  0.93906  0.49728  Biso   1.000  H
  H170     1.0000 0.26807  0.88906  0.47621  Biso   1.000  H
  C126     1.0000 0.39668  0.84776  0.52771  Biso   1.000  C
  H171     1.0000 0.90465  0.51408  0.06049  Biso   1.000  H
  H172     1.0000 0.92327  0.42819  0.04808  Biso   1.000  H
  H173     1.0000 0.95015  0.39871  0.58368  Biso   1.000  H
  H174     1.0000 0.82510  0.45105  0.57531  Biso   1.000  H
  C127     1.0000 0.76714  0.35002  0.60589  Biso   1.000  C
  C128     1.0000 0.10249  0.00549  0.08588  Biso   1.000  C
  H175     1.0000 0.06677  0.75453  0.25698  Biso   1.000  H
  H176     1.0000 0.18680  0.77275  0.21832  Biso   1.000  H
  H177     1.0000 0.03725  0.74395  0.18289  Biso   1.000  H
  H178     1.0000 0.34605  0.71611  0.13810  Biso   1.000  H
  N14      1.0000 0.22921  0.61791  0.10709  Biso   1.000  N
  H179     1.0000 0.13258  0.12960  0.36641  Biso   1.000  H
  H180     1.0000 0.22129  0.05671  0.35780  Biso   1.000  H
  C129     1.0000 0.16666  0.08689  0.44630  Biso   1.000  C
  H181     1.0000 0.49702  0.84846  0.53689  Biso   1.000  H
  H182     1.0000 0.36117  0.79332  0.51202  Biso   1.000  H
  C130     1.0000 0.33944  0.87842  0.58868  Biso   1.000  C
  H183     1.0000 0.79713  0.29710  0.60071  Biso   1.000  H
  H184     1.0000 0.66920  0.34659  0.58939  Biso   1.000  H
  C131     1.0000 0.78829  0.39040  0.67689  Biso   1.000  C
  C132     1.0000 0.14696  0.92602  0.06192  Biso   1.000  C
  H185     1.0000 0.17850  0.04463  0.08779  Biso   1.000  H
  H186     1.0000 0.02486  0.01612  0.05721  Biso   1.000  H
  H187     1.0000 0.23197  0.56773  0.09882  Biso   1.000  H
  H188     1.0000 0.15127  0.63843  0.10129  Biso   1.000  H
  H189     1.0000 0.16305  0.03480  0.45562  Biso   1.000  H
  H190     1.0000 0.26070  0.11044  0.46052  Biso   1.000  H
  C133     1.0000 0.08037  0.12979  0.48139  Biso   1.000  C
  H191     1.0000 0.40123  0.92093  0.61421  Biso   1.000  H
  H192     1.0000 0.33124  0.83704  0.61160  Biso   1.000  H
  H193     1.0000 0.24952  0.89696  0.57950  Biso   1.000  H
  H194     1.0000 0.86223  0.36785  0.69872  Biso   1.000  H
  H195     1.0000 0.70393  0.38304  0.69491  Biso   1.000  H
  H196     1.0000 0.81180  0.44565  0.68131  Biso   1.000  H
  N15      1.0000 0.15890  0.87734  0.10200  Biso   1.000  N
  O24      1.0000 0.17782  0.90894  0.00651  Biso   1.000  O
  H197     1.0000 0.98512  0.10813  0.46698  Biso   1.000  H
  H198     1.0000 0.08725  0.18319  0.47512  Biso   1.000  H
  C134     1.0000 0.11764  0.13060  0.55781  Biso   1.000  C
  H199     1.0000 0.13479  0.89183  0.13929  Biso   1.000  H
  N16      1.0000 0.20969  0.80281  0.08479  Biso   1.000  N
  H200     1.0000 0.03851  0.11030  0.57469  Biso   1.000  H
  H201     1.0000 0.19631  0.10025  0.56552  Biso   1.000  H
  C135     1.0000 0.14904  0.20854  0.58321  Biso   1.000  C
  H202     1.0000 0.23418  0.78761  0.04760  Biso   1.000  H
  H203     1.0000 0.21619  0.77251  0.11161  Biso   1.000  H
  H204     1.0000 0.22269  0.22522  0.56109  Biso   1.000  H
  H205     1.0000 0.06800  0.23492  0.57089  Biso   1.000  H
  C136     1.0000 0.18807  0.23910  0.64508  Biso   1.000  C
  H206     1.0000 0.16578  0.20125  0.66961  Biso   1.000  H
  H207     1.0000 0.13965  0.28532  0.65792  Biso   1.000  H
  H208     1.0000 0.28653  0.25289  0.65230  Biso   1.000  H
