data_image0
_cell_length_a       8.052
_cell_length_b       21.305
_cell_length_c       19.941
_cell_angle_alpha    90
_cell_angle_beta     100.32
_cell_angle_gamma    90

_symmetry_space_group_name_H-M    "P 1"
_symmetry_int_tables_number       1

loop_
  _symmetry_equiv_pos_as_xyz
  'x, y, z'

loop_
  _atom_site_label
  _atom_site_occupancy
  _atom_site_fract_x
  _atom_site_fract_y
  _atom_site_fract_z
  _atom_site_thermal_displace_type
  _atom_site_B_iso_or_equiv
  _atom_site_type_symbol
  N1       1.0000 0.75297  0.49589  0.52848  Biso   1.000  N
  C1       1.0000 0.81949  0.45449  0.49030  Biso   1.000  C
  C2       1.0000 0.74695  0.48040  0.59301  Biso   1.000  C
  C3       1.0000 0.87258  0.39521  0.51452  Biso   1.000  C
  C4       1.0000 0.84301  0.47529  0.42323  Biso   1.000  C
  C5       1.0000 0.82032  0.42258  0.62039  Biso   1.000  C
  C6       1.0000 0.65805  0.52631  0.62890  Biso   1.000  C
  C7       1.0000 0.93266  0.34992  0.47022  Biso   1.000  C
  N2       1.0000 0.87355  0.37982  0.57940  Biso   1.000  N
  N3       1.0000 0.86859  0.49078  0.37088  Biso   1.000  N
  C8       1.0000 0.85209  0.40479  0.69338  Biso   1.000  C
  C9       1.0000 0.56403  0.50861  0.67870  Biso   1.000  C
  C10      1.0000 0.66158  0.58949  0.61193  Biso   1.000  C
  N4       1.0000 0.97947  0.31692  0.43352  Biso   1.000  N
  C11      1.0000 0.90683  0.44820  0.74512  Biso   1.000  C
  C12      1.0000 0.83750  0.34199  0.71061  Biso   1.000  C
  C13      1.0000 0.47264  0.55292  0.70729  Biso   1.000  C
  H1       1.0000 0.56359  0.46698  0.69282  Biso   1.000  H
  H2       1.0000 0.72566  0.60249  0.58002  Biso   1.000  H
  C14      1.0000 0.56931  0.63361  0.64078  Biso   1.000  C
  C15      1.0000 0.94480  0.42929  0.81250  Biso   1.000  C
  H3       1.0000 0.91797  0.49021  0.73411  Biso   1.000  H
  H4       1.0000 0.80296  0.31241  0.67671  Biso   1.000  H
  C16      1.0000 0.87547  0.32330  0.77799  Biso   1.000  C
  C17      1.0000 0.47276  0.61568  0.68798  Biso   1.000  C
  H5       1.0000 0.41067  0.54100  0.74033  Biso   1.000  H
  H6       1.0000 0.57231  0.67571  0.62880  Biso   1.000  H
  C18      1.0000 0.93139  0.36630  0.82958  Biso   1.000  C
  H7       1.0000 0.97831  0.45881  0.84660  Biso   1.000  H
  H8       1.0000 0.86296  0.28139  0.78900  Biso   1.000  H
  C19      1.0000 0.36045  0.66252  0.71448  Biso   1.000  C
  C20      1.0000 0.97803  0.34461  0.90308  Biso   1.000  C
  S1       1.0000 0.46930  0.71434  0.78151  Biso   1.000  S
  H9       1.0000 0.27270  0.64008  0.73222  Biso   1.000  H
  H10      1.0000 0.30557  0.68820  0.67671  Biso   1.000  H
  S2       1.0000 0.79738  0.31669  0.93789  Biso   1.000  S
  H11      1.0000 0.02978  0.37930  0.93071  Biso   1.000  H
  H12      1.0000 0.06104  0.31129  0.90599  Biso   1.000  H
  C21      1.0000 0.55974  0.66008  0.84288  Biso   1.000  C
  C22      1.0000 0.66704  0.38310  0.92739  Biso   1.000  C
  S3       1.0000 0.42562  0.60643  0.87479  Biso   1.000  S
  C23      1.0000 0.72029  0.66022  0.87331  Biso   1.000  C
  S4       1.0000 0.74576  0.45266  0.96991  Biso   1.000  S
  C24      1.0000 0.50714  0.38390  0.89340  Biso   1.000  C
  C25      1.0000 0.59366  0.56090  0.91542  Biso   1.000  C
  S5       1.0000 0.78016  0.60413  0.93856  Biso   1.000  S
  S6       1.0000 0.86923  0.71640  0.86052  Biso   1.000  S
  C26      1.0000 0.58124  0.49871  0.92632  Biso   1.000  C
  S7       1.0000 0.39635  0.45571  0.89645  Biso   1.000  S
  S8       1.0000 0.39716  0.32115  0.85068  Biso   1.000  S
  C27      1.0000 0.98420  0.66839  0.81118  Biso   1.000  C
  C28      1.0000 0.04845  0.67050  0.85410  Biso   1.000  C
  C29      1.0000 0.33716  0.35381  0.76612  Biso   1.000  C
  H13      1.0000 0.90884  0.65421  0.76979  Biso   1.000  H
  H14      1.0000 0.02094  0.64140  0.81561  Biso   1.000  H
  H15      1.0000 0.07723  0.69270  0.79859  Biso   1.000  H
  H16      1.0000 0.02984  0.63178  0.83819  Biso   1.000  H
  H17      1.0000 0.14105  0.69791  0.84670  Biso   1.000  H
  H18      1.0000 0.08282  0.64661  0.89630  Biso   1.000  H
  H19      1.0000 0.27397  0.32330  0.73650  Biso   1.000  H
  H20      1.0000 0.43686  0.36522  0.74868  Biso   1.000  H
  H21      1.0000 0.26896  0.39038  0.76831  Biso   1.000  H
  N5       1.0000 0.24694  0.50411  0.47150  Biso   1.000  N
  C30      1.0000 0.25310  0.51960  0.40702  Biso   1.000  C
  C31      1.0000 0.18057  0.54551  0.50973  Biso   1.000  C
  C32      1.0000 0.34198  0.47369  0.37108  Biso   1.000  C
  C33      1.0000 0.17971  0.57742  0.37959  Biso   1.000  C
  C34      1.0000 0.12735  0.60479  0.48551  Biso   1.000  C
  C35      1.0000 0.15705  0.52471  0.57681  Biso   1.000  C
  C36      1.0000 0.43601  0.49139  0.32128  Biso   1.000  C
  C37      1.0000 0.33836  0.41051  0.38810  Biso   1.000  C
  N6       1.0000 0.12638  0.62018  0.42063  Biso   1.000  N
  C38      1.0000 0.14795  0.59521  0.30660  Biso   1.000  C
  C39      1.0000 0.06739  0.65008  0.52981  Biso   1.000  C
  N7       1.0000 0.13144  0.50922  0.62910  Biso   1.000  N
  C40      1.0000 0.52739  0.44708  0.29268  Biso   1.000  C
  H22      1.0000 0.43635  0.53302  0.30721  Biso   1.000  H
  C41      1.0000 0.43073  0.36639  0.35920  Biso   1.000  C
  H23      1.0000 0.27440  0.39751  0.42001  Biso   1.000  H
  C42      1.0000 0.09322  0.55180  0.25491  Biso   1.000  C
  C43      1.0000 0.16256  0.65801  0.28942  Biso   1.000  C
  N8       1.0000 0.02046  0.68308  0.56651  Biso   1.000  N
  C44      1.0000 0.52715  0.38432  0.31200  Biso   1.000  C
  H24      1.0000 0.58926  0.45900  0.25971  Biso   1.000  H
  H25      1.0000 0.42772  0.32429  0.37118  Biso   1.000  H
  C45      1.0000 0.05523  0.57071  0.18748  Biso   1.000  C
  H26      1.0000 0.08196  0.50979  0.26592  Biso   1.000  H
  C46      1.0000 0.12444  0.67670  0.22199  Biso   1.000  C
  H27      1.0000 0.19709  0.68759  0.32332  Biso   1.000  H
  C47      1.0000 0.63958  0.33748  0.28550  Biso   1.000  C
  C48      1.0000 0.06865  0.63370  0.17040  Biso   1.000  C
  H28      1.0000 0.02172  0.54119  0.15338  Biso   1.000  H
  H29      1.0000 0.13694  0.71861  0.21098  Biso   1.000  H
  S9       1.0000 0.53073  0.28566  0.21847  Biso   1.000  S
  H30      1.0000 0.72736  0.35992  0.26781  Biso   1.000  H
  H31      1.0000 0.69436  0.31180  0.32332  Biso   1.000  H
  C49      1.0000 0.02188  0.65539  0.09690  Biso   1.000  C
  C50      1.0000 0.44029  0.33992  0.15710  Biso   1.000  C
  S10      1.0000 0.20255  0.68331  0.06214  Biso   1.000  S
  H32      1.0000 0.97015  0.62070  0.06932  Biso   1.000  H
  H33      1.0000 0.93887  0.68871  0.09399  Biso   1.000  H
  C51      1.0000 0.27977  0.33978  0.12672  Biso   1.000  C
  S11      1.0000 0.57442  0.39357  0.12519  Biso   1.000  S
  C52      1.0000 0.33300  0.61690  0.07258  Biso   1.000  C
  S12      1.0000 0.13068  0.28360  0.13946  Biso   1.000  S
  S13      1.0000 0.21987  0.39587  0.06142  Biso   1.000  S
  C53      1.0000 0.40627  0.43910  0.08461  Biso   1.000  C
  S14      1.0000 0.25417  0.54734  0.03012  Biso   1.000  S
  C54      1.0000 0.49277  0.61610  0.10658  Biso   1.000  C
  C55      1.0000 0.01583  0.33161  0.18880  Biso   1.000  C
  C56      1.0000 0.95146  0.32950  0.14588  Biso   1.000  C
  C57      1.0000 0.41882  0.50129  0.07371  Biso   1.000  C
  S15      1.0000 0.60356  0.54429  0.10353  Biso   1.000  S
  S16      1.0000 0.60275  0.67885  0.14930  Biso   1.000  S
  H34      1.0000 0.09120  0.34579  0.23019  Biso   1.000  H
  H35      1.0000 0.97911  0.35860  0.18442  Biso   1.000  H
  H36      1.0000 0.92281  0.30730  0.20139  Biso   1.000  H
  H37      1.0000 0.97019  0.36822  0.16179  Biso   1.000  H
  H38      1.0000 0.85888  0.30209  0.15333  Biso   1.000  H
  H39      1.0000 0.91721  0.35339  0.10368  Biso   1.000  H
  C58      1.0000 0.66277  0.64619  0.23391  Biso   1.000  C
  H40      1.0000 0.72594  0.67670  0.26348  Biso   1.000  H
  H41      1.0000 0.56318  0.63478  0.25129  Biso   1.000  H
  H42      1.0000 0.73110  0.60962  0.23172  Biso   1.000  H
  S17      1.0000 0.79734  0.18329  0.43785  Biso   1.000  S
  C59      1.0000 0.66702  0.11692  0.42740  Biso   1.000  C
  C60      1.0000 0.97814  0.15541  0.40309  Biso   1.000  C
  C61      1.0000 0.50725  0.11612  0.39341  Biso   1.000  C
  S18      1.0000 0.74586  0.04731  0.46992  Biso   1.000  S
  C62      1.0000 0.93137  0.13368  0.32959  Biso   1.000  C
  H43      1.0000 0.02977  0.12072  0.43072  Biso   1.000  H
  H44      1.0000 0.06115  0.18869  0.40600  Biso   1.000  H
  S19      1.0000 0.39727  0.17888  0.35069  Biso   1.000  S
  S20      1.0000 0.39634  0.04431  0.39646  Biso   1.000  S
  C63      1.0000 0.58120  0.00131  0.42628  Biso   1.000  C
  C64      1.0000 0.94478  0.07069  0.31251  Biso   1.000  C
  C65      1.0000 0.87545  0.17672  0.27800  Biso   1.000  C
  C66      1.0000 0.33725  0.14621  0.26608  Biso   1.000  C
  C67      1.0000 0.59375  0.93912  0.41538  Biso   1.000  C
  H45      1.0000 0.97829  0.04121  0.34661  Biso   1.000  H
  C68      1.0000 0.90679  0.05182  0.24508  Biso   1.000  C
  C69      1.0000 0.83748  0.15799  0.21062  Biso   1.000  C
  H46      1.0000 0.86295  0.21859  0.28901  Biso   1.000  H
  H47      1.0000 0.27396  0.17672  0.23651  Biso   1.000  H
  H48      1.0000 0.43684  0.13480  0.24870  Biso   1.000  H
  H49      1.0000 0.26894  0.10960  0.26832  Biso   1.000  H
  S21      1.0000 0.78014  0.89589  0.43857  Biso   1.000  S
  S22      1.0000 0.42560  0.89355  0.37480  Biso   1.000  S
  H50      1.0000 0.91795  0.00981  0.23412  Biso   1.000  H
  C70      1.0000 0.85207  0.09519  0.19339  Biso   1.000  C
  H51      1.0000 0.80294  0.18761  0.17672  Biso   1.000  H
  C71      1.0000 0.72027  0.83980  0.37332  Biso   1.000  C
  C72      1.0000 0.55973  0.83990  0.34289  Biso   1.000  C
  C73      1.0000 0.82031  0.07740  0.12040  Biso   1.000  C
  S23      1.0000 0.86934  0.78357  0.36053  Biso   1.000  S
  S24      1.0000 0.46929  0.78564  0.28152  Biso   1.000  S
  N9       1.0000 0.87366  0.12021  0.07942  Biso   1.000  N
  C74      1.0000 0.74693  0.01962  0.09302  Biso   1.000  C
  C75      1.0000 0.98419  0.83159  0.31119  Biso   1.000  C
  C76      1.0000 0.04856  0.82948  0.35411  Biso   1.000  C
  C77      1.0000 0.36044  0.83750  0.21449  Biso   1.000  C
  C78      1.0000 0.87254  0.10481  0.01448  Biso   1.000  C
  N10      1.0000 0.75295  0.00408  0.02849  Biso   1.000  N
  C79      1.0000 0.65804  0.97372  0.12891  Biso   1.000  C
  H52      1.0000 0.90882  0.84581  0.26980  Biso   1.000  H
  H53      1.0000 0.02093  0.85858  0.31562  Biso   1.000  H
  H54      1.0000 0.07721  0.80732  0.29860  Biso   1.000  H
  H55      1.0000 0.02983  0.86820  0.33820  Biso   1.000  H
  H56      1.0000 0.14116  0.80211  0.34672  Biso   1.000  H
  H57      1.0000 0.08281  0.85341  0.39631  Biso   1.000  H
  H58      1.0000 0.27266  0.85989  0.23218  Biso   1.000  H
  H59      1.0000 0.30555  0.81178  0.17672  Biso   1.000  H
  C80      1.0000 0.47275  0.88430  0.18799  Biso   1.000  C
  C81      1.0000 0.81947  0.04548  0.99032  Biso   1.000  C
  C82      1.0000 0.93252  0.15011  0.97023  Biso   1.000  C
  C83      1.0000 0.56401  0.99141  0.17871  Biso   1.000  C
  C84      1.0000 0.66154  0.91049  0.11188  Biso   1.000  C
  C85      1.0000 0.47262  0.94710  0.20731  Biso   1.000  C
  C86      1.0000 0.56929  0.86642  0.14079  Biso   1.000  C
  C87      1.0000 0.84299  0.02469  0.92324  Biso   1.000  C
  N11      1.0000 0.97945  0.18310  0.93353  Biso   1.000  N
  H60      1.0000 0.56355  0.03300  0.19278  Biso   1.000  H
  H61      1.0000 0.72562  0.89749  0.07998  Biso   1.000  H
  H62      1.0000 0.41075  0.95898  0.24028  Biso   1.000  H
  H63      1.0000 0.57230  0.82431  0.12881  Biso   1.000  H
  N12      1.0000 0.86860  0.00920  0.87094  Biso   1.000  N
  S25      1.0000 0.20257  0.81671  0.56213  Biso   1.000  S
  C88      1.0000 0.33301  0.88308  0.57257  Biso   1.000  C
  C89      1.0000 0.02189  0.84459  0.59689  Biso   1.000  C
  S26      1.0000 0.25419  0.95269  0.53011  Biso   1.000  S
  C90      1.0000 0.49281  0.88388  0.60662  Biso   1.000  C
  C91      1.0000 0.06854  0.86632  0.67039  Biso   1.000  C
  H64      1.0000 0.97017  0.87928  0.56931  Biso   1.000  H
  H65      1.0000 0.93889  0.81131  0.59398  Biso   1.000  H
  C92      1.0000 0.41883  0.99869  0.57370  Biso   1.000  C
  S27      1.0000 0.60357  0.95569  0.60351  Biso   1.000  S
  S28      1.0000 0.60279  0.82112  0.64934  Biso   1.000  S
  C93      1.0000 0.05515  0.92931  0.68752  Biso   1.000  C
  C94      1.0000 0.12446  0.82328  0.72198  Biso   1.000  C
  C95      1.0000 0.40628  0.06088  0.58460  Biso   1.000  C
  C96      1.0000 0.66279  0.85379  0.73390  Biso   1.000  C
  H66      1.0000 0.02176  0.95879  0.65342  Biso   1.000  H
  C97      1.0000 0.09324  0.94818  0.75490  Biso   1.000  C
  C98      1.0000 0.16245  0.84201  0.78941  Biso   1.000  C
  H67      1.0000 0.13698  0.78141  0.71102  Biso   1.000  H
  S29      1.0000 0.21991  0.10411  0.56146  Biso   1.000  S
  S30      1.0000 0.57444  0.10645  0.62518  Biso   1.000  S
  H68      1.0000 0.72597  0.82328  0.76352  Biso   1.000  H
  H69      1.0000 0.56319  0.86520  0.75128  Biso   1.000  H
  H70      1.0000 0.73111  0.89040  0.73171  Biso   1.000  H
  H71      1.0000 0.08198  0.99019  0.76591  Biso   1.000  H
  C99      1.0000 0.14784  0.90481  0.80659  Biso   1.000  C
  H72      1.0000 0.19711  0.81239  0.82331  Biso   1.000  H
  C100     1.0000 0.27966  0.16020  0.62671  Biso   1.000  C
  C101     1.0000 0.44031  0.16010  0.65709  Biso   1.000  C
  C102     1.0000 0.17973  0.92260  0.87958  Biso   1.000  C
  S31      1.0000 0.13069  0.21643  0.63945  Biso   1.000  S
  S32      1.0000 0.53075  0.21436  0.71846  Biso   1.000  S
  N13      1.0000 0.12640  0.87979  0.92062  Biso   1.000  N
  C103     1.0000 0.25312  0.98038  0.90701  Biso   1.000  C
  C104     1.0000 0.95150  0.17052  0.64592  Biso   1.000  C
  C105     1.0000 0.01585  0.16841  0.68879  Biso   1.000  C
  C106     1.0000 0.63960  0.16250  0.78549  Biso   1.000  C
  C107     1.0000 0.12737  0.89519  0.98550  Biso   1.000  C
  N14      1.0000 0.24695  0.99592  0.97149  Biso   1.000  N
  C108     1.0000 0.34202  0.02628  0.87112  Biso   1.000  C
  H73      1.0000 0.85890  0.19789  0.65332  Biso   1.000  H
  H74      1.0000 0.97913  0.14142  0.68441  Biso   1.000  H
  H75      1.0000 0.91725  0.14659  0.60372  Biso   1.000  H
  H76      1.0000 0.92282  0.19268  0.70138  Biso   1.000  H
  H77      1.0000 0.97021  0.13180  0.66178  Biso   1.000  H
  H78      1.0000 0.09121  0.15419  0.73018  Biso   1.000  H
  H79      1.0000 0.72725  0.14011  0.76780  Biso   1.000  H
  H80      1.0000 0.69438  0.18822  0.82331  Biso   1.000  H
  C109     1.0000 0.52716  0.11570  0.81199  Biso   1.000  C
  C110     1.0000 0.18056  0.95452  0.00966  Biso   1.000  C
  C111     1.0000 0.06741  0.84989  0.02980  Biso   1.000  C
  C112     1.0000 0.43605  0.00859  0.82132  Biso   1.000  C
  C113     1.0000 0.33837  0.08951  0.88809  Biso   1.000  C
  C114     1.0000 0.52743  0.05290  0.79272  Biso   1.000  C
  C115     1.0000 0.43074  0.13358  0.85919  Biso   1.000  C
  C116     1.0000 0.15706  0.97531  0.07679  Biso   1.000  C
  N15      1.0000 0.02060  0.81690  0.06650  Biso   1.000  N
  H81      1.0000 0.43636  0.96700  0.80720  Biso   1.000  H
  H82      1.0000 0.27441  0.10251  0.92000  Biso   1.000  H
  H83      1.0000 0.58928  0.04102  0.75969  Biso   1.000  H
  H84      1.0000 0.42776  0.17569  0.87122  Biso   1.000  H
  N16      1.0000 0.13146  0.99080  0.12909  Biso   1.000  N
