data_image0
_cell_length_a       12.152
_cell_length_b       12.56
_cell_length_c       14.333
_cell_angle_alpha    104.79
_cell_angle_beta     102.13
_cell_angle_gamma    107.64

_symmetry_space_group_name_H-M    "P 1"
_symmetry_int_tables_number       1

loop_
  _symmetry_equiv_pos_as_xyz
  'x, y, z'

loop_
  _atom_site_label
  _atom_site_occupancy
  _atom_site_fract_x
  _atom_site_fract_y
  _atom_site_fract_z
  _atom_site_thermal_displace_type
  _atom_site_B_iso_or_equiv
  _atom_site_type_symbol
  O1       1.0000 0.60612  0.49014  0.41872  Biso   1.000  O
  C1       1.0000 0.67464  0.49418  0.35272  Biso   1.000  C
  H1       1.0000 0.58344  0.54785  0.42723  Biso   1.000  H
  C2       1.0000 0.64747  0.53483  0.27175  Biso   1.000  C
  C3       1.0000 0.76869  0.45275  0.36920  Biso   1.000  C
  C4       1.0000 0.54539  0.58170  0.25383  Biso   1.000  C
  C5       1.0000 0.71782  0.53261  0.20742  Biso   1.000  C
  C6       1.0000 0.83315  0.44870  0.29970  Biso   1.000  C
  C7       1.0000 0.79846  0.41300  0.45951  Biso   1.000  C
  C8       1.0000 0.46678  0.53308  0.14188  Biso   1.000  C
  C9       1.0000 0.59643  0.71749  0.30016  Biso   1.000  C
  H2       1.0000 0.49065  0.55138  0.29241  Biso   1.000  H
  C10      1.0000 0.80997  0.48802  0.21790  Biso   1.000  C
  H3       1.0000 0.70261  0.56280  0.15373  Biso   1.000  H
  O2       1.0000 0.92919  0.41084  0.31239  Biso   1.000  O
  H4       1.0000 0.76174  0.44370  0.50963  Biso   1.000  H
  H5       1.0000 0.76603  0.32586  0.43680  Biso   1.000  H
  H6       1.0000 0.88689  0.44354  0.49049  Biso   1.000  H
  C11      1.0000 0.40447  0.39791  0.10147  Biso   1.000  C
  H7       1.0000 0.51864  0.55781  0.10041  Biso   1.000  H
  H8       1.0000 0.40409  0.56828  0.13466  Biso   1.000  H
  C12      1.0000 0.60970  0.77289  0.40087  Biso   1.000  C
  C13      1.0000 0.62989  0.78981  0.24380  Biso   1.000  C
  C14      1.0000 0.88032  0.48054  0.14233  Biso   1.000  C
  H9       1.0000 0.91343  0.35523  0.33601  Biso   1.000  H
  H10      1.0000 0.35434  0.37143  0.03061  Biso   1.000  H
  H11      1.0000 0.46625  0.36244  0.10572  Biso   1.000  H
  H12      1.0000 0.35312  0.37293  0.14233  Biso   1.000  H
  O3       1.0000 0.56963  0.69952  0.45442  Biso   1.000  O
  C15      1.0000 0.65921  0.89648  0.44743  Biso   1.000  C
  C16      1.0000 0.68082  0.91372  0.28573  Biso   1.000  C
  H13      1.0000 0.61745  0.75328  0.17370  Biso   1.000  H
  H14      1.0000 0.91858  0.42210  0.15076  Biso   1.000  H
  C17      1.0000 0.79981  0.43171  0.03091  Biso   1.000  C
  C18      1.0000 0.98507  0.59874  0.16626  Biso   1.000  C
  H15      1.0000 0.56791  0.73993  0.51396  Biso   1.000  H
  C19      1.0000 0.69828  0.96501  0.38933  Biso   1.000  C
  C20      1.0000 0.66644  0.95314  0.55543  Biso   1.000  C
  C21      1.0000 0.71808  0.99254  0.22390  Biso   1.000  C
  H16      1.0000 0.75701  0.48527  0.01967  Biso   1.000  H
  C22      1.0000 0.70637  0.30636  0.00061  Biso   1.000  C
  H17      1.0000 0.85210  0.43153  0.98648  Biso   1.000  H
  C23      1.0000 0.96727  0.68494  0.12661  Biso   1.000  C
  C24      1.0000 0.10264  0.62279  0.22542  Biso   1.000  C
  O4       1.0000 0.75186  0.08812  0.43300  Biso   1.000  O
  H18      1.0000 0.73554  0.94849  0.60138  Biso   1.000  H
  H19      1.0000 0.59114  0.91124  0.56721  Biso   1.000  H
  H20      1.0000 0.67723  0.03667  0.56812  Biso   1.000  H
  C25      1.0000 0.63271  0.94163  0.11378  Biso   1.000  C
  C26      1.0000 0.85061  0.02327  0.23074  Biso   1.000  C
  H21      1.0000 0.70997  0.06914  0.25641  Biso   1.000  H
  H22      1.0000 0.74808  0.25283  0.01109  Biso   1.000  H
  H23      1.0000 0.65200  0.30647  0.04238  Biso   1.000  H
  H24      1.0000 0.65876  0.27918  0.92883  Biso   1.000  H
  H25      1.0000 0.88713  0.67158  0.08909  Biso   1.000  H
  C27      1.0000 0.06083  0.78975  0.13922  Biso   1.000  C
  O5       1.0000 0.13090  0.54711  0.27236  Biso   1.000  O
  C28      1.0000 0.20024  0.72579  0.24001  Biso   1.000  C
  H26      1.0000 0.81076  0.10705  0.48503  Biso   1.000  H
  H27      1.0000 0.54767  0.92266  0.11438  Biso   1.000  H
  H28      1.0000 0.64001  0.86685  0.07770  Biso   1.000  H
  C29      1.0000 0.66232  0.02925  0.05681  Biso   1.000  C
  C30      1.0000 0.88520  0.94348  0.16800  Biso   1.000  C
  C31      1.0000 0.94259  0.13093  0.29613  Biso   1.000  C
  C32      1.0000 0.03519  0.87950  0.09236  Biso   1.000  C
  C33      1.0000 0.17718  0.80791  0.19558  Biso   1.000  C
  H29      1.0000 0.06825  0.50428  0.28056  Biso   1.000  H
  C34      1.0000 0.32488  0.74513  0.30077  Biso   1.000  C
  H30      1.0000 0.60428  0.99482  0.98800  Biso   1.000  H
  H31      1.0000 0.65629  0.10386  0.09289  Biso   1.000  H
  H32      1.0000 0.74502  0.04496  0.05286  Biso   1.000  H
  H33      1.0000 0.82498  0.86801  0.12562  Biso   1.000  H
  C35      1.0000 0.00277  0.96888  0.16466  Biso   1.000  C
  O6       1.0000 0.91658  0.21417  0.36290  Biso   1.000  O
  C36      1.0000 0.06325  0.16096  0.29811  Biso   1.000  C
  C37      1.0000 0.93828  0.82078  0.98671  Biso   1.000  C
  H34      1.0000 0.11258  0.92548  0.08286  Biso   1.000  H
  O7       1.0000 0.27653  0.90619  0.20963  Biso   1.000  O
  H35      1.0000 0.32959  0.76156  0.37239  Biso   1.000  H
  H36      1.0000 0.34246  0.67381  0.27624  Biso   1.000  H
  H37      1.0000 0.38437  0.81298  0.29370  Biso   1.000  H
  C38      1.0000 0.09070  0.07948  0.23028  Biso   1.000  C
  H38      1.0000 0.86080  0.17907  0.38310  Biso   1.000  H
  C39      1.0000 0.15858  0.27873  0.36890  Biso   1.000  C
  H39      1.0000 0.92676  0.88384  0.96081  Biso   1.000  H
  H40      1.0000 0.86001  0.77509  0.99362  Biso   1.000  H
  C40      1.0000 0.97109  0.73824  0.91000  Biso   1.000  C
  H41      1.0000 0.25495  0.96354  0.20909  Biso   1.000  H
  O8       1.0000 0.20686  0.10303  0.22360  Biso   1.000  O
  H42      1.0000 0.18163  0.33101  0.33009  Biso   1.000  H
  H43      1.0000 0.12606  0.31547  0.41971  Biso   1.000  H
  H44      1.0000 0.23021  0.26658  0.40300  Biso   1.000  H
  H45      1.0000 0.90571  0.70282  0.84498  Biso   1.000  H
  H46      1.0000 0.98221  0.67511  0.93468  Biso   1.000  H
  H47      1.0000 0.04685  0.78347  0.90050  Biso   1.000  H
  H48      1.0000 0.26195  0.16394  0.26697  Biso   1.000  H
  O9       1.0000 0.39383  0.50975  0.58126  Biso   1.000  O
  C41      1.0000 0.32526  0.50579  0.64726  Biso   1.000  C
  H49      1.0000 0.41646  0.45206  0.57283  Biso   1.000  H
  C42      1.0000 0.35239  0.46505  0.72822  Biso   1.000  C
  C43      1.0000 0.23126  0.54714  0.63078  Biso   1.000  C
  C44      1.0000 0.45451  0.41826  0.74615  Biso   1.000  C
  C45      1.0000 0.28216  0.46736  0.79255  Biso   1.000  C
  C46      1.0000 0.16674  0.55126  0.70027  Biso   1.000  C
  C47      1.0000 0.20144  0.58697  0.54047  Biso   1.000  C
  C48      1.0000 0.40346  0.28248  0.69982  Biso   1.000  C
  H50      1.0000 0.50925  0.44858  0.70756  Biso   1.000  H
  C49      1.0000 0.53312  0.46689  0.85810  Biso   1.000  C
  C50      1.0000 0.18995  0.51198  0.78215  Biso   1.000  C
  H51      1.0000 0.29732  0.43719  0.84633  Biso   1.000  H
  O10      1.0000 0.07070  0.58912  0.68759  Biso   1.000  O
  H52      1.0000 0.23818  0.55630  0.49042  Biso   1.000  H
  H53      1.0000 0.23384  0.67402  0.56318  Biso   1.000  H
  H54      1.0000 0.11306  0.55634  0.50948  Biso   1.000  H
  C51      1.0000 0.39028  0.22708  0.59911  Biso   1.000  C
  C52      1.0000 0.37001  0.21016  0.75617  Biso   1.000  C
  H55      1.0000 0.48134  0.44216  0.89957  Biso   1.000  H
  H56      1.0000 0.59580  0.43169  0.86532  Biso   1.000  H
  C53      1.0000 0.59543  0.60206  0.89851  Biso   1.000  C
  C54      1.0000 0.11963  0.51934  0.85764  Biso   1.000  C
  H57      1.0000 0.08654  0.64474  0.66397  Biso   1.000  H
  O11      1.0000 0.43035  0.30044  0.54556  Biso   1.000  O
  C55      1.0000 0.34080  0.10351  0.55262  Biso   1.000  C
  C56      1.0000 0.31911  0.08628  0.71432  Biso   1.000  C
  H58      1.0000 0.38245  0.24669  0.82628  Biso   1.000  H
  H59      1.0000 0.64564  0.62853  0.96937  Biso   1.000  H
  H60      1.0000 0.53375  0.63756  0.89433  Biso   1.000  H
  H61      1.0000 0.64680  0.62706  0.85772  Biso   1.000  H
  H62      1.0000 0.08131  0.57787  0.84921  Biso   1.000  H
  C57      1.0000 0.20009  0.56826  0.96906  Biso   1.000  C
  C58      1.0000 0.01480  0.40114  0.83372  Biso   1.000  C
  H63      1.0000 0.43196  0.25995  0.48601  Biso   1.000  H
  C59      1.0000 0.30164  0.03498  0.61073  Biso   1.000  C
  C60      1.0000 0.33346  0.04678  0.44462  Biso   1.000  C
  C61      1.0000 0.28179  0.00735  0.77607  Biso   1.000  C
  H64      1.0000 0.24288  0.51470  0.98031  Biso   1.000  H
  C62      1.0000 0.29349  0.69353  0.99937  Biso   1.000  C
  H65      1.0000 0.14777  0.56835  0.01350  Biso   1.000  H
  C63      1.0000 0.03260  0.31494  0.87337  Biso   1.000  C
  C64      1.0000 0.89728  0.37721  0.77463  Biso   1.000  C
  O12      1.0000 0.24812  0.91185  0.56698  Biso   1.000  O
  H66      1.0000 0.26435  0.05147  0.39859  Biso   1.000  H
  H67      1.0000 0.40872  0.08865  0.43277  Biso   1.000  H
  H68      1.0000 0.32266  0.96330  0.43186  Biso   1.000  H
  C65      1.0000 0.36725  0.05825  0.88620  Biso   1.000  C
  C66      1.0000 0.14928  0.97670  0.76924  Biso   1.000  C
  H69      1.0000 0.28993  0.93082  0.74356  Biso   1.000  H
  H70      1.0000 0.25181  0.74714  0.98889  Biso   1.000  H
  H71      1.0000 0.34789  0.69349  0.95760  Biso   1.000  H
  H72      1.0000 0.34114  0.72079  0.07114  Biso   1.000  H
  C67      1.0000 0.93904  0.21013  0.86076  Biso   1.000  C
  H73      1.0000 0.11285  0.32839  0.91089  Biso   1.000  H
  O13      1.0000 0.86903  0.45289  0.72769  Biso   1.000  O
  C68      1.0000 0.79966  0.27417  0.75997  Biso   1.000  C
  H74      1.0000 0.18916  0.89295  0.51503  Biso   1.000  H
  H75      1.0000 0.45223  0.07731  0.88559  Biso   1.000  H
  H76      1.0000 0.35989  0.13311  0.92228  Biso   1.000  H
  C69      1.0000 0.33757  0.97072  0.94317  Biso   1.000  C
  C70      1.0000 0.11469  0.05648  0.83197  Biso   1.000  C
  C71      1.0000 0.05730  0.86903  0.70384  Biso   1.000  C
  C72      1.0000 0.96471  0.12047  0.90762  Biso   1.000  C
  C73      1.0000 0.82275  0.19209  0.80448  Biso   1.000  C
  H77      1.0000 0.93165  0.49569  0.71941  Biso   1.000  H
  C74      1.0000 0.67507  0.25475  0.69921  Biso   1.000  C
  H78      1.0000 0.34361  0.89610  0.90709  Biso   1.000  H
  H79      1.0000 0.25488  0.95500  0.94711  Biso   1.000  H
  H80      1.0000 0.39558  0.00506  0.01198  Biso   1.000  H
  H81      1.0000 0.17495  0.13198  0.87443  Biso   1.000  H
  C75      1.0000 0.99713  0.03109  0.83531  Biso   1.000  C
  C76      1.0000 0.93664  0.83900  0.70187  Biso   1.000  C
  O14      1.0000 0.08332  0.78575  0.63716  Biso   1.000  O
  H82      1.0000 0.88732  0.07448  0.91711  Biso   1.000  H
  C77      1.0000 0.06170  0.17919  0.01327  Biso   1.000  C
  O15      1.0000 0.72336  0.09377  0.79035  Biso   1.000  O
  H83      1.0000 0.67039  0.23841  0.62759  Biso   1.000  H
  H84      1.0000 0.65746  0.32619  0.72382  Biso   1.000  H
  H85      1.0000 0.61552  0.18698  0.70627  Biso   1.000  H
  C78      1.0000 0.90919  0.92049  0.76969  Biso   1.000  C
  C79      1.0000 0.84129  0.72115  0.63108  Biso   1.000  C
  H86      1.0000 0.13909  0.82090  0.61688  Biso   1.000  H
  H87      1.0000 0.07322  0.11613  0.03917  Biso   1.000  H
  H88      1.0000 0.13988  0.22488  0.00636  Biso   1.000  H
  C80      1.0000 0.02880  0.26173  0.08998  Biso   1.000  C
  H89      1.0000 0.74492  0.03634  0.79088  Biso   1.000  H
  O16      1.0000 0.79304  0.89688  0.77645  Biso   1.000  O
  H90      1.0000 0.81824  0.66887  0.66989  Biso   1.000  H
  H91      1.0000 0.87383  0.68450  0.58027  Biso   1.000  H
  H92      1.0000 0.76977  0.73339  0.59698  Biso   1.000  H
  H93      1.0000 0.95313  0.21649  0.09947  Biso   1.000  H
  H94      1.0000 0.09416  0.29706  0.15499  Biso   1.000  H
  H95      1.0000 0.01766  0.32477  0.06530  Biso   1.000  H
  H96      1.0000 0.73795  0.83603  0.73301  Biso   1.000  H
