data_image0
_cell_length_a       13.477
_cell_length_b       15.019
_cell_length_c       17.319
_cell_angle_alpha    98.17
_cell_angle_beta     109.67
_cell_angle_gamma    102.74

_symmetry_space_group_name_H-M    "P 1"
_symmetry_int_tables_number       1

loop_
  _symmetry_equiv_pos_as_xyz
  'x, y, z'

loop_
  _atom_site_label
  _atom_site_occupancy
  _atom_site_fract_x
  _atom_site_fract_y
  _atom_site_fract_z
  _atom_site_thermal_displace_type
  _atom_site_B_iso_or_equiv
  _atom_site_type_symbol
  C1       1.0000 0.22285  0.49271  0.85227  Biso   1.000  C
  N1       1.0000 0.16473  0.43029  0.76728  Biso   1.000  N
  H1       1.0000 0.24395  0.55513  0.84690  Biso   1.000  H
  H2       1.0000 0.17161  0.49040  0.87990  Biso   1.000  H
  C2       1.0000 0.32459  0.47038  0.90924  Biso   1.000  C
  C3       1.0000 0.24168  0.42103  0.72469  Biso   1.000  C
  C4       1.0000 0.10338  0.33668  0.76955  Biso   1.000  C
  H3       1.0000 0.30505  0.40638  0.90987  Biso   1.000  H
  H4       1.0000 0.38387  0.48548  0.88899  Biso   1.000  H
  N2       1.0000 0.36526  0.52554  0.99542  Biso   1.000  N
  C5       1.0000 0.18464  0.39824  0.62892  Biso   1.000  C
  H5       1.0000 0.27673  0.37179  0.74072  Biso   1.000  H
  H6       1.0000 0.29816  0.47923  0.74122  Biso   1.000  H
  H7       1.0000 0.14701  0.31719  0.81990  Biso   1.000  H
  H8       1.0000 0.09308  0.29221  0.71971  Biso   1.000  H
  C6       1.0000 0.98988  0.33418  0.77069  Biso   1.000  C
  H9       1.0000 0.33892  0.50396  0.02741  Biso   1.000  H
  C7       1.0000 0.44382  0.60685  0.02382  Biso   1.000  C
  N3       1.0000 0.17001  0.48080  0.59674  Biso   1.000  N
  H10      1.0000 0.11410  0.35371  0.61087  Biso   1.000  H
  H11      1.0000 0.23000  0.37091  0.60437  Biso   1.000  H
  N4       1.0000 0.94730  0.25292  0.79920  Biso   1.000  N
  H12      1.0000 0.99622  0.38918  0.81018  Biso   1.000  H
  H13      1.0000 0.93763  0.33348  0.71649  Biso   1.000  H
  O1       1.0000 0.48764  0.64501  0.98009  Biso   1.000  O
  C8       1.0000 0.47777  0.65068  0.11650  Biso   1.000  C
  C9       1.0000 0.23248  0.52074  0.55825  Biso   1.000  C
  H14      1.0000 0.12202  0.50649  0.60570  Biso   1.000  H
  C10      1.0000 0.87909  0.17150  0.74747  Biso   1.000  C
  H15      1.0000 0.97912  0.25683  0.85031  Biso   1.000  H
  N5       1.0000 0.41189  0.61327  0.15373  Biso   1.000  N
  C11      1.0000 0.57220  0.72555  0.15865  Biso   1.000  C
  O2       1.0000 0.30460  0.49157  0.54412  Biso   1.000  O
  C12      1.0000 0.20989  0.60798  0.53194  Biso   1.000  C
  O3       1.0000 0.84032  0.15553  0.67018  Biso   1.000  O
  C13      1.0000 0.85183  0.09585  0.79245  Biso   1.000  C
  C14      1.0000 0.43820  0.65068  0.23550  Biso   1.000  C
  H16      1.0000 0.61807  0.74746  0.13284  Biso   1.000  H
  C15      1.0000 0.59999  0.76159  0.24376  Biso   1.000  C
  N6       1.0000 0.13445  0.63838  0.55314  Biso   1.000  N
  C16      1.0000 0.26626  0.65271  0.48778  Biso   1.000  C
  N7       1.0000 0.89268  0.12109  0.87649  Biso   1.000  N
  C17      1.0000 0.78742  0.00576  0.74722  Biso   1.000  C
  C18      1.0000 0.53187  0.72415  0.28319  Biso   1.000  C
  C19      1.0000 0.35842  0.61053  0.27474  Biso   1.000  C
  H17      1.0000 0.66329  0.81022  0.27121  Biso   1.000  H
  C20      1.0000 0.11480  0.71642  0.53131  Biso   1.000  C
  C21      1.0000 0.24520  0.73288  0.46576  Biso   1.000  C
  H18      1.0000 0.31516  0.62914  0.47389  Biso   1.000  H
  C22      1.0000 0.86899  0.05680  0.91845  Biso   1.000  C
  C23      1.0000 0.76394  0.93964  0.79157  Biso   1.000  C
  H19      1.0000 0.76082  0.99415  0.68993  Biso   1.000  H
  H20      1.0000 0.54705  0.74797  0.33941  Biso   1.000  H
  O4       1.0000 0.37110  0.64891  0.34641  Biso   1.000  O
  N8       1.0000 0.27745  0.53456  0.22559  Biso   1.000  N
  C24      1.0000 0.02601  0.74732  0.55257  Biso   1.000  C
  C25      1.0000 0.16867  0.76664  0.48853  Biso   1.000  C
  H21      1.0000 0.27901  0.76109  0.43509  Biso   1.000  H
  C26      1.0000 0.80480  0.96520  0.87889  Biso   1.000  C
  C27      1.0000 0.91783  0.08925  0.01328  Biso   1.000  C
  H22      1.0000 0.71956  0.87673  0.76330  Biso   1.000  H
  H23      1.0000 0.27803  0.50963  0.17814  Biso   1.000  H
  C28      1.0000 0.18667  0.48926  0.24729  Biso   1.000  C
  O5       1.0000 0.00475  0.81940  0.53642  Biso   1.000  O
  N9       1.0000 0.97174  0.68791  0.58557  Biso   1.000  N
  H24      1.0000 0.14975  0.82170  0.47440  Biso   1.000  H
  H25      1.0000 0.79015  0.92183  0.91031  Biso   1.000  H
  O6       1.0000 0.88219  0.04492  0.05795  Biso   1.000  O
  N10      1.0000 0.00081  0.16800  0.04287  Biso   1.000  N
  H26      1.0000 0.11496  0.47967  0.19795  Biso   1.000  H
  H27      1.0000 0.18541  0.53013  0.29562  Biso   1.000  H
  C29      1.0000 0.19619  0.39508  0.26742  Biso   1.000  C
  C30      1.0000 0.87400  0.69956  0.59951  Biso   1.000  C
  H28      1.0000 0.99502  0.63884  0.59731  Biso   1.000  H
  C31      1.0000 0.06398  0.20716  0.13234  Biso   1.000  C
  H29      1.0000 0.02043  0.19535  0.01025  Biso   1.000  H
  N11      1.0000 0.08867  0.33262  0.25726  Biso   1.000  N
  H30      1.0000 0.22858  0.36451  0.23152  Biso   1.000  H
  H31      1.0000 0.24699  0.40525  0.32521  Biso   1.000  H
  C32      1.0000 0.89680  0.73813  0.69119  Biso   1.000  C
  H32      1.0000 0.84504  0.74653  0.56727  Biso   1.000  H
  H33      1.0000 0.81502  0.63822  0.57932  Biso   1.000  H
  C33      1.0000 0.02250  0.28422  0.16849  Biso   1.000  C
  H34      1.0000 0.13859  0.23174  0.13991  Biso   1.000  H
  H35      1.0000 0.05670  0.15441  0.15972  Biso   1.000  H
  C34      1.0000 0.10323  0.26190  0.30881  Biso   1.000  C
  N12      1.0000 0.91129  0.66742  0.74274  Biso   1.000  N
  H36      1.0000 0.83464  0.76328  0.69258  Biso   1.000  H
  H37      1.0000 0.96959  0.79107  0.71188  Biso   1.000  H
  H38      1.0000 0.94412  0.25464  0.16243  Biso   1.000  H
  H39      1.0000 0.01978  0.33111  0.13385  Biso   1.000  H
  H40      1.0000 0.16539  0.23676  0.30742  Biso   1.000  H
  H41      1.0000 0.03037  0.20896  0.28811  Biso   1.000  H
  C35      1.0000 0.12606  0.30050  0.40055  Biso   1.000  C
  C36      1.0000 0.97753  0.71581  0.83151  Biso   1.000  C
  C37      1.0000 0.80384  0.60495  0.73258  Biso   1.000  C
  H42      1.0000 0.15499  0.25350  0.43273  Biso   1.000  H
  H43      1.0000 0.18504  0.36183  0.42074  Biso   1.000  H
  N13      1.0000 0.02830  0.31212  0.41443  Biso   1.000  N
  H44      1.0000 0.05591  0.74539  0.83756  Biso   1.000  H
  H45      1.0000 0.98021  0.66894  0.86621  Biso   1.000  H
  C38      1.0000 0.93609  0.79289  0.86772  Biso   1.000  C
  C39      1.0000 0.81336  0.51077  0.75270  Biso   1.000  C
  H46      1.0000 0.77145  0.63553  0.76848  Biso   1.000  H
  H47      1.0000 0.75304  0.59478  0.67478  Biso   1.000  H
  C40      1.0000 0.97403  0.25272  0.44743  Biso   1.000  C
  H48      1.0000 0.00504  0.36121  0.40276  Biso   1.000  H
  H49      1.0000 0.86144  0.76829  0.86009  Biso   1.000  H
  H50      1.0000 0.94333  0.84563  0.84028  Biso   1.000  H
  N14      1.0000 0.99914  0.83203  0.95713  Biso   1.000  N
  N15      1.0000 0.72258  0.46547  0.77441  Biso   1.000  N
  H51      1.0000 0.88510  0.52038  0.80211  Biso   1.000  H
  H52      1.0000 0.81462  0.46991  0.70437  Biso   1.000  H
  O7       1.0000 0.99528  0.18063  0.46358  Biso   1.000  O
  C41      1.0000 0.88516  0.28362  0.46869  Biso   1.000  C
  C42      1.0000 0.08223  0.91080  0.98678  Biso   1.000  C
  H53      1.0000 0.97963  0.80470  0.98981  Biso   1.000  H
  C43      1.0000 0.64162  0.38951  0.72526  Biso   1.000  C
  H54      1.0000 0.72203  0.49042  0.82192  Biso   1.000  H
  N16      1.0000 0.86558  0.36165  0.44686  Biso   1.000  N
  C44      1.0000 0.83140  0.23341  0.51153  Biso   1.000  C
  O8       1.0000 0.11785  0.95512  0.94205  Biso   1.000  O
  C45      1.0000 0.13104  0.94323  0.08155  Biso   1.000  C
  O9       1.0000 0.62893  0.35112  0.65358  Biso   1.000  O
  C46      1.0000 0.56179  0.34937  0.76457  Biso   1.000  C
  C47      1.0000 0.79017  0.39207  0.46812  Biso   1.000  C
  H55      1.0000 0.85029  0.17833  0.52560  Biso   1.000  H
  C48      1.0000 0.75483  0.26715  0.53424  Biso   1.000  C
  N17      1.0000 0.10738  0.87896  0.12357  Biso   1.000  N
  C49      1.0000 0.19523  0.03484  0.12111  Biso   1.000  C
  N18      1.0000 0.58815  0.38677  0.84627  Biso   1.000  N
  C50      1.0000 0.46820  0.27590  0.71687  Biso   1.000  C
  C51      1.0000 0.76748  0.47929  0.44175  Biso   1.000  C
  C52      1.0000 0.73377  0.34732  0.51222  Biso   1.000  C
  H56      1.0000 0.72102  0.23895  0.56491  Biso   1.000  H
  C53      1.0000 0.14816  0.90420  0.20761  Biso   1.000  C
  H57      1.0000 0.20991  0.07822  0.08975  Biso   1.000  H
  C54      1.0000 0.23602  0.06040  0.20843  Biso   1.000  C
  C55      1.0000 0.52226  0.34936  0.88350  Biso   1.000  C
  C56      1.0000 0.40004  0.23844  0.75624  Biso   1.000  C
  H58      1.0000 0.45298  0.25207  0.66059  Biso   1.000  H
  N19      1.0000 0.83002  0.51924  0.40326  Biso   1.000  N
  O10      1.0000 0.69546  0.50848  0.45594  Biso   1.000  O
  H59      1.0000 0.68489  0.37096  0.52610  Biso   1.000  H
  C57      1.0000 0.21261  0.99428  0.25278  Biso   1.000  C
  C58      1.0000 0.12087  0.82854  0.25253  Biso   1.000  C
  H60      1.0000 0.28051  0.12332  0.23676  Biso   1.000  H
  C59      1.0000 0.55621  0.39319  0.97618  Biso   1.000  C
  C60      1.0000 0.42783  0.27448  0.84135  Biso   1.000  C
  H61      1.0000 0.33667  0.18981  0.72879  Biso   1.000  H
  C61      1.0000 0.81544  0.60188  0.37115  Biso   1.000  C
  H62      1.0000 0.87801  0.49354  0.39430  Biso   1.000  H
  H63      1.0000 0.23917  0.00590  0.31013  Biso   1.000  H
  O11      1.0000 0.15964  0.84450  0.32982  Biso   1.000  O
  N20      1.0000 0.05269  0.74713  0.20086  Biso   1.000  N
  O12      1.0000 0.51242  0.35504  0.01997  Biso   1.000  O
  N21      1.0000 0.63480  0.47451  0.00464  Biso   1.000  N
  H64      1.0000 0.38200  0.25259  0.86722  Biso   1.000  H
  C62      1.0000 0.75831  0.57902  0.27537  Biso   1.000  C
  H65      1.0000 0.88594  0.64632  0.38913  Biso   1.000  H
  H66      1.0000 0.77003  0.62912  0.39563  Biso   1.000  H
  H67      1.0000 0.02094  0.74322  0.14975  Biso   1.000  H
  C63      1.0000 0.01008  0.66585  0.22931  Biso   1.000  C
  H68      1.0000 0.66111  0.49607  0.97258  Biso   1.000  H
  C64      1.0000 0.67544  0.52965  0.09076  Biso   1.000  C
  N22      1.0000 0.83533  0.56976  0.23278  Biso   1.000  N
  H69      1.0000 0.72333  0.62827  0.25934  Biso   1.000  H
  H70      1.0000 0.70190  0.52082  0.25884  Biso   1.000  H
  C65      1.0000 0.89665  0.66335  0.23045  Biso   1.000  C
  H71      1.0000 0.00381  0.61085  0.18982  Biso   1.000  H
  H72      1.0000 0.06241  0.66655  0.28351  Biso   1.000  H
  C66      1.0000 0.77719  0.50732  0.14773  Biso   1.000  C
  H73      1.0000 0.69491  0.59365  0.09013  Biso   1.000  H
  H74      1.0000 0.61609  0.51455  0.11101  Biso   1.000  H
  H75      1.0000 0.85302  0.68285  0.18010  Biso   1.000  H
  H76      1.0000 0.90691  0.70784  0.28035  Biso   1.000  H
  H77      1.0000 0.75611  0.44492  0.15316  Biso   1.000  H
  H78      1.0000 0.82846  0.50965  0.12016  Biso   1.000  H
