data_image0
_cell_length_a       17.916
_cell_length_b       11.364
_cell_length_c       14.414
_cell_angle_alpha    90
_cell_angle_beta     90
_cell_angle_gamma    90

_symmetry_space_group_name_H-M    "P 1"
_symmetry_int_tables_number       1

loop_
  _symmetry_equiv_pos_as_xyz
  'x, y, z'

loop_
  _atom_site_label
  _atom_site_occupancy
  _atom_site_fract_x
  _atom_site_fract_y
  _atom_site_fract_z
  _atom_site_thermal_displace_type
  _atom_site_B_iso_or_equiv
  _atom_site_type_symbol
  C1       1.0000 0.62430  0.75000  0.45997  Biso   1.000  C
  C2       1.0000 0.64373  0.75000  0.36069  Biso   1.000  C
  H1       1.0000 0.59238  0.81573  0.47322  Biso   1.000  H
  H2       1.0000 0.59238  0.68427  0.47322  Biso   1.000  H
  H3       1.0000 0.59891  0.67819  0.47523  Biso   1.000  H
  H4       1.0000 0.59891  0.82181  0.47523  Biso   1.000  H
  H5       1.0000 0.66912  0.75607  0.49632  Biso   1.000  H
  H6       1.0000 0.66912  0.74393  0.49632  Biso   1.000  H
  C3       1.0000 0.57479  0.75000  0.29527  Biso   1.000  C
  N1       1.0000 0.68230  0.64379  0.33280  Biso   1.000  N
  N2       1.0000 0.68230  0.85621  0.33280  Biso   1.000  N
  N3       1.0000 0.58322  0.64150  0.24032  Biso   1.000  N
  H7       1.0000 0.52802  0.75000  0.33051  Biso   1.000  H
  N4       1.0000 0.58322  0.85850  0.24032  Biso   1.000  N
  C4       1.0000 0.64361  0.57911  0.26738  Biso   1.000  C
  C5       1.0000 0.75000  0.59794  0.37519  Biso   1.000  C
  C6       1.0000 0.64361  0.92089  0.26738  Biso   1.000  C
  C7       1.0000 0.75000  0.90206  0.37519  Biso   1.000  C
  C8       1.0000 0.53159  0.60023  0.17400  Biso   1.000  C
  C9       1.0000 0.53159  0.89977  0.17400  Biso   1.000  C
  O1       1.0000 0.66109  0.47994  0.23970  Biso   1.000  O
  H8       1.0000 0.75000  0.61774  0.44061  Biso   1.000  H
  H9       1.0000 0.75000  0.51276  0.36999  Biso   1.000  H
  N5       1.0000 0.81770  0.64379  0.33280  Biso   1.000  N
  O2       1.0000 0.66109  0.02006  0.23970  Biso   1.000  O
  H10      1.0000 0.75000  0.88226  0.44061  Biso   1.000  H
  H11      1.0000 0.75000  0.98724  0.36999  Biso   1.000  H
  N6       1.0000 0.81770  0.85621  0.33280  Biso   1.000  N
  H12      1.0000 0.53422  0.51487  0.17282  Biso   1.000  H
  H13      1.0000 0.48180  0.62144  0.19453  Biso   1.000  H
  N7       1.0000 0.54142  0.64291  0.08062  Biso   1.000  N
  N8       1.0000 0.54142  0.85709  0.08062  Biso   1.000  N
  H14      1.0000 0.53422  0.98513  0.17282  Biso   1.000  H
  H15      1.0000 0.48180  0.87856  0.19453  Biso   1.000  H
  C10      1.0000 0.85639  0.57911  0.26738  Biso   1.000  C
  C11      1.0000 0.85627  0.75000  0.36069  Biso   1.000  C
  C12      1.0000 0.85639  0.92089  0.26738  Biso   1.000  C
  C13      1.0000 0.57959  0.58052  0.01630  Biso   1.000  C
  C14      1.0000 0.50932  0.75000  0.04100  Biso   1.000  C
  C15      1.0000 0.57959  0.91948  0.01630  Biso   1.000  C
  N9       1.0000 0.91678  0.64150  0.24032  Biso   1.000  N
  O3       1.0000 0.83891  0.47994  0.23970  Biso   1.000  O
  C16      1.0000 0.92521  0.75000  0.29527  Biso   1.000  C
  C17      1.0000 0.87570  0.75000  0.45997  Biso   1.000  C
  N10      1.0000 0.91678  0.85850  0.24032  Biso   1.000  N
  O4       1.0000 0.83891  0.02006  0.23970  Biso   1.000  O
  O5       1.0000 0.60812  0.48407  0.02789  Biso   1.000  O
  N11      1.0000 0.57747  0.64159  0.93381  Biso   1.000  N
  H16      1.0000 0.45468  0.75000  0.04621  Biso   1.000  H
  C18      1.0000 0.53349  0.75000  0.94131  Biso   1.000  C
  N12      1.0000 0.57747  0.85841  0.93381  Biso   1.000  N
  O6       1.0000 0.60812  0.01593  0.02789  Biso   1.000  O
  C19      1.0000 0.96841  0.60023  0.17400  Biso   1.000  C
  H17      1.0000 0.97198  0.75000  0.33051  Biso   1.000  H
  H18      1.0000 0.90762  0.68427  0.47322  Biso   1.000  H
  H19      1.0000 0.90762  0.81573  0.47322  Biso   1.000  H
  H20      1.0000 0.90109  0.82181  0.47523  Biso   1.000  H
  H21      1.0000 0.90109  0.67819  0.47523  Biso   1.000  H
  H22      1.0000 0.83088  0.74393  0.49632  Biso   1.000  H
  H23      1.0000 0.83088  0.75607  0.49632  Biso   1.000  H
  C20      1.0000 0.96841  0.89977  0.17400  Biso   1.000  C
  C21      1.0000 0.61481  0.59856  0.85070  Biso   1.000  C
  C22      1.0000 0.47081  0.75000  0.86777  Biso   1.000  C
  C23      1.0000 0.61481  0.90144  0.85070  Biso   1.000  C
  H24      1.0000 0.96578  0.51487  0.17282  Biso   1.000  H
  N13      1.0000 0.95858  0.64291  0.08062  Biso   1.000  N
  H25      1.0000 0.01820  0.62144  0.19453  Biso   1.000  H
  H26      1.0000 0.96578  0.98513  0.17282  Biso   1.000  H
  N14      1.0000 0.95858  0.85709  0.08062  Biso   1.000  N
  H27      1.0000 0.01820  0.87856  0.19453  Biso   1.000  H
  H28      1.0000 0.58512  0.62020  0.79707  Biso   1.000  H
  H29      1.0000 0.61671  0.51338  0.85341  Biso   1.000  H
  N15      1.0000 0.68938  0.64247  0.83787  Biso   1.000  N
  H30      1.0000 0.43838  0.81609  0.87810  Biso   1.000  H
  H31      1.0000 0.43838  0.68391  0.87810  Biso   1.000  H
  H32      1.0000 0.49230  0.75537  0.80699  Biso   1.000  H
  H33      1.0000 0.49230  0.74463  0.80699  Biso   1.000  H
  H34      1.0000 0.44251  0.67846  0.87269  Biso   1.000  H
  H35      1.0000 0.44251  0.82154  0.87269  Biso   1.000  H
  H36      1.0000 0.58512  0.87980  0.79707  Biso   1.000  H
  H37      1.0000 0.61671  0.98662  0.85341  Biso   1.000  H
  N16      1.0000 0.68938  0.85753  0.83787  Biso   1.000  N
  C24      1.0000 0.92041  0.58052  0.01630  Biso   1.000  C
  C25      1.0000 0.99068  0.75000  0.04100  Biso   1.000  C
  C26      1.0000 0.92041  0.91948  0.01630  Biso   1.000  C
  C27      1.0000 0.75000  0.57647  0.86208  Biso   1.000  C
  C28      1.0000 0.70791  0.75000  0.78812  Biso   1.000  C
  C29      1.0000 0.75000  0.92353  0.86208  Biso   1.000  C
  N17      1.0000 0.92253  0.64159  0.93381  Biso   1.000  N
  O7       1.0000 0.89188  0.48407  0.02789  Biso   1.000  O
  C30      1.0000 0.96651  0.75000  0.94131  Biso   1.000  C
  H38      1.0000 0.04532  0.75000  0.04621  Biso   1.000  H
  N18      1.0000 0.92253  0.85841  0.93381  Biso   1.000  N
  O8       1.0000 0.89188  0.01593  0.02789  Biso   1.000  O
  N19      1.0000 0.81062  0.64247  0.83787  Biso   1.000  N
  O9       1.0000 0.75000  0.48029  0.89559  Biso   1.000  O
  C31      1.0000 0.79209  0.75000  0.78812  Biso   1.000  C
  C32      1.0000 0.68620  0.75000  0.69349  Biso   1.000  C
  N20      1.0000 0.81062  0.85753  0.83787  Biso   1.000  N
  O10      1.0000 0.75000  0.01971  0.89559  Biso   1.000  O
  C33      1.0000 0.88519  0.59856  0.85070  Biso   1.000  C
  C34      1.0000 0.02919  0.75000  0.86777  Biso   1.000  C
  C35      1.0000 0.88519  0.90144  0.85070  Biso   1.000  C
  C36      1.0000 0.81380  0.75000  0.69349  Biso   1.000  C
  H39      1.0000 0.63301  0.75836  0.68933  Biso   1.000  H
  H40      1.0000 0.63301  0.74164  0.68933  Biso   1.000  H
  H41      1.0000 0.70992  0.81441  0.66200  Biso   1.000  H
  H42      1.0000 0.70992  0.68559  0.66200  Biso   1.000  H
  H43      1.0000 0.70099  0.67723  0.66519  Biso   1.000  H
  H44      1.0000 0.70099  0.82277  0.66519  Biso   1.000  H
  H45      1.0000 0.91488  0.62020  0.79707  Biso   1.000  H
  H46      1.0000 0.88329  0.51338  0.85341  Biso   1.000  H
  H47      1.0000 0.06162  0.68391  0.87810  Biso   1.000  H
  H48      1.0000 0.06162  0.81609  0.87810  Biso   1.000  H
  H49      1.0000 0.00770  0.74463  0.80699  Biso   1.000  H
  H50      1.0000 0.00770  0.75537  0.80699  Biso   1.000  H
  H51      1.0000 0.05749  0.82154  0.87269  Biso   1.000  H
  H52      1.0000 0.05749  0.67846  0.87269  Biso   1.000  H
  H53      1.0000 0.91488  0.87980  0.79707  Biso   1.000  H
  H54      1.0000 0.88329  0.98662  0.85341  Biso   1.000  H
  H55      1.0000 0.86699  0.74164  0.68933  Biso   1.000  H
  H56      1.0000 0.86699  0.75836  0.68933  Biso   1.000  H
  H57      1.0000 0.79008  0.68559  0.66200  Biso   1.000  H
  H58      1.0000 0.79008  0.81441  0.66200  Biso   1.000  H
  H59      1.0000 0.79901  0.82277  0.66519  Biso   1.000  H
  H60      1.0000 0.79901  0.67723  0.66519  Biso   1.000  H
