data_image0
_cell_length_a       13.424
_cell_length_b       15.735
_cell_length_c       18.28
_cell_angle_alpha    90
_cell_angle_beta     95.53
_cell_angle_gamma    90

_symmetry_space_group_name_H-M    "P 1"
_symmetry_int_tables_number       1

loop_
  _symmetry_equiv_pos_as_xyz
  'x, y, z'

loop_
  _atom_site_label
  _atom_site_occupancy
  _atom_site_fract_x
  _atom_site_fract_y
  _atom_site_fract_z
  _atom_site_thermal_displace_type
  _atom_site_B_iso_or_equiv
  _atom_site_type_symbol
  N1       1.0000 0.74897  0.29501  0.70800  Biso   1.000  N
  C1       1.0000 0.72694  0.20400  0.70300  Biso   1.000  C
  C2       1.0000 0.84792  0.30798  0.75697  Biso   1.000  C
  C3       1.0000 0.75094  0.33899  0.63501  Biso   1.000  C
  C4       1.0000 0.69495  0.17102  0.77599  Biso   1.000  C
  H1       1.0000 0.78795  0.17299  0.68997  Biso   1.000  H
  H2       1.0000 0.67096  0.19498  0.66299  Biso   1.000  H
  C5       1.0000 0.82397  0.28001  0.83501  Biso   1.000  C
  H3       1.0000 0.86997  0.36899  0.75697  Biso   1.000  H
  H4       1.0000 0.90193  0.27099  0.73999  Biso   1.000  H
  H5       1.0000 0.76892  0.40000  0.64600  Biso   1.000  H
  H6       1.0000 0.68196  0.33600  0.61001  Biso   1.000  H
  C6       1.0000 0.82298  0.30798  0.58000  Biso   1.000  C
  C7       1.0000 0.58496  0.14503  0.77802  Biso   1.000  C
  C8       1.0000 0.71794  0.24900  0.83199  Biso   1.000  C
  C9       1.0000 0.76993  0.10003  0.80698  Biso   1.000  C
  C10      1.0000 0.83692  0.35297  0.88997  Biso   1.000  C
  C11      1.0000 0.88891  0.20197  0.86101  Biso   1.000  C
  H7       1.0000 0.82397  0.24398  0.57901  Biso   1.000  H
  H8       1.0000 0.80094  0.33003  0.52899  Biso   1.000  H
  O1       1.0000 0.90694  0.33397  0.60099  Biso   1.000  O
  C12      1.0000 0.51397  0.19803  0.73999  Biso   1.000  C
  C13      1.0000 0.55391  0.07398  0.81501  Biso   1.000  C
  O2       1.0000 0.65497  0.27099  0.87101  Biso   1.000  O
  N2       1.0000 0.87296  0.13003  0.80698  Biso   1.000  N
  H9       1.0000 0.75696  0.08599  0.85799  Biso   1.000  H
  H10      1.0000 0.76097  0.04798  0.77500  Biso   1.000  H
  C14      1.0000 0.88894  0.34598  0.95999  Biso   1.000  C
  C15      1.0000 0.79194  0.43000  0.86799  Biso   1.000  C
  H11      1.0000 0.96193  0.21799  0.86398  Biso   1.000  H
  H12      1.0000 0.87195  0.18201  0.90998  Biso   1.000  H
  C16      1.0000 0.98294  0.34102  0.54098  Biso   1.000  C
  C17      1.0000 0.41192  0.17998  0.73999  Biso   1.000  C
  H13      1.0000 0.53596  0.24900  0.71399  Biso   1.000  H
  C18      1.0000 0.45195  0.05497  0.81402  Biso   1.000  C
  H14      1.0000 0.60492  0.03597  0.84100  Biso   1.000  H
  C19      1.0000 0.94894  0.06501  0.82001  Biso   1.000  C
  H15      1.0000 0.87997  0.14998  0.75598  Biso   1.000  H
  H16      1.0000 0.92190  0.29101  0.97500  Biso   1.000  H
  C20      1.0000 0.89494  0.41500  0.00803  Biso   1.000  C
  C21      1.0000 0.79794  0.49901  0.91597  Biso   1.000  C
  H17      1.0000 0.75491  0.43502  0.81798  Biso   1.000  H
  H18      1.0000 0.95894  0.38500  0.50399  Biso   1.000  H
  C22      1.0000 0.99297  0.26603  0.50899  Biso   1.000  C
  H19      1.0000 0.04896  0.35901  0.56499  Biso   1.000  H
  C23      1.0000 0.38094  0.10798  0.77697  Biso   1.000  C
  H20      1.0000 0.36092  0.21799  0.71300  Biso   1.000  H
  H21      1.0000 0.42994  0.00400  0.84100  Biso   1.000  H
  C24      1.0000 0.95498  0.01799  0.74801  Biso   1.000  C
  H22      1.0000 0.92991  0.02498  0.85898  Biso   1.000  H
  H23      1.0000 0.01495  0.09202  0.83600  Biso   1.000  H
  C25      1.0000 0.84892  0.49202  0.98599  Biso   1.000  C
  H24      1.0000 0.93197  0.40998  0.05799  Biso   1.000  H
  H25      1.0000 0.76493  0.55399  0.89998  Biso   1.000  H
  H26      1.0000 0.92498  0.24201  0.49497  Biso   1.000  H
  H27      1.0000 0.02694  0.27601  0.46299  Biso   1.000  H
  O3       1.0000 0.05294  0.20197  0.55499  Biso   1.000  O
  O4       1.0000 0.28495  0.07900  0.78802  Biso   1.000  O
  H28      1.0000 0.96396  0.05898  0.70800  Biso   1.000  H
  H29      1.0000 0.89195  0.98398  0.73597  Biso   1.000  H
  O5       1.0000 0.03695  0.96301  0.75900  Biso   1.000  O
  O6       1.0000 0.84996  0.56403  0.02798  Biso   1.000  O
  C26      1.0000 0.06297  0.12799  0.51899  Biso   1.000  C
  C27      1.0000 0.20992  0.13200  0.75098  Biso   1.000  C
  C28      1.0000 0.05692  0.91300  0.69602  Biso   1.000  C
  C29      1.0000 0.88400  0.55697  0.10399  Biso   1.000  C
  C30      1.0000 0.12095  0.06101  0.55098  Biso   1.000  C
  H30      1.0000 0.99396  0.10499  0.50800  Biso   1.000  H
  H31      1.0000 0.09094  0.14198  0.47101  Biso   1.000  H
  C31      1.0000 0.18395  0.21099  0.78698  Biso   1.000  C
  H32      1.0000 0.14695  0.09800  0.74400  Biso   1.000  H
  H33      1.0000 0.23195  0.14700  0.70201  Biso   1.000  H
  H34      1.0000 0.99099  0.89399  0.67101  Biso   1.000  H
  C32      1.0000 0.11293  0.95100  0.64199  Biso   1.000  C
  H35      1.0000 0.09494  0.86203  0.71498  Biso   1.000  H
  H36      1.0000 0.95696  0.54299  0.11102  Biso   1.000  H
  H37      1.0000 0.84597  0.51198  0.12702  Biso   1.000  H
  C33      1.0000 0.86695  0.64099  0.14098  Biso   1.000  C
  O7       1.0000 0.06593  0.02301  0.60797  Biso   1.000  O
  H38      1.0000 0.18694  0.08402  0.57302  Biso   1.000  H
  H39      1.0000 0.13295  0.01799  0.51300  Biso   1.000  H
  C34      1.0000 0.20592  0.21799  0.86299  Biso   1.000  C
  C35      1.0000 0.13593  0.27798  0.74801  Biso   1.000  C
  H40      1.0000 0.18098  0.96797  0.66502  Biso   1.000  H
  H41      1.0000 0.12196  0.90798  0.60297  Biso   1.000  H
  C36      1.0000 0.81999  0.70798  0.10102  Biso   1.000  C
  C37      1.0000 0.88894  0.64798  0.21600  Biso   1.000  C
  C38      1.0000 0.17995  0.29202  0.89899  Biso   1.000  C
  H42      1.0000 0.23893  0.17000  0.89201  Biso   1.000  H
  C39      1.0000 0.11093  0.35202  0.78401  Biso   1.000  C
  H43      1.0000 0.12096  0.27302  0.69300  Biso   1.000  H
  C40      1.0000 0.79395  0.78201  0.13702  Biso   1.000  C
  H44      1.0000 0.80398  0.70302  0.04601  Biso   1.000  H
  C41      1.0000 0.86394  0.72202  0.25200  Biso   1.000  C
  H45      1.0000 0.92299  0.60000  0.24502  Biso   1.000  H
  C42      1.0000 0.13291  0.35901  0.85898  Biso   1.000  C
  H46      1.0000 0.19596  0.29698  0.95400  Biso   1.000  H
  H47      1.0000 0.07695  0.40000  0.75499  Biso   1.000  H
  C43      1.0000 0.81598  0.78901  0.21298  Biso   1.000  C
  H48      1.0000 0.76094  0.83000  0.10800  Biso   1.000  H
  H49      1.0000 0.87898  0.72698  0.30701  Biso   1.000  H
  C44      1.0000 0.11594  0.44303  0.89602  Biso   1.000  C
  C45      1.0000 0.78995  0.86800  0.24903  Biso   1.000  C
  O8       1.0000 0.14990  0.43597  0.97197  Biso   1.000  O
  H50      1.0000 0.04291  0.45701  0.88898  Biso   1.000  H
  H51      1.0000 0.15397  0.48802  0.87299  Biso   1.000  H
  H52      1.0000 0.85292  0.90200  0.25601  Biso   1.000  H
  H53      1.0000 0.76792  0.85300  0.29800  Biso   1.000  H
  O9       1.0000 0.71499  0.92100  0.21199  Biso   1.000  O
  C46      1.0000 0.15094  0.50798  0.01402  Biso   1.000  C
  C47      1.0000 0.61892  0.89202  0.22298  Biso   1.000  C
  C48      1.0000 0.10492  0.58500  0.99198  Biso   1.000  C
  C49      1.0000 0.20199  0.50099  0.08398  Biso   1.000  C
  C50      1.0000 0.54799  0.94503  0.18599  Biso   1.000  C
  C51      1.0000 0.58795  0.82002  0.26002  Biso   1.000  C
  H54      1.0000 0.06797  0.59002  0.94202  Biso   1.000  H
  C52      1.0000 0.11100  0.65402  0.04002  Biso   1.000  C
  C53      1.0000 0.20800  0.57000  0.13202  Biso   1.000  C
  H55      1.0000 0.23493  0.44601  0.09998  Biso   1.000  H
  C54      1.0000 0.44595  0.92602  0.18500  Biso   1.000  C
  H56      1.0000 0.56993  0.99600  0.15900  Biso   1.000  H
  C55      1.0000 0.48597  0.80197  0.26002  Biso   1.000  C
  H57      1.0000 0.63894  0.78201  0.28701  Biso   1.000  H
  C56      1.0000 0.16294  0.64703  0.10998  Biso   1.000  C
  H58      1.0000 0.07797  0.70899  0.02501  Biso   1.000  H
  H59      1.0000 0.24495  0.56498  0.18198  Biso   1.000  H
  C57      1.0000 0.41498  0.85497  0.22199  Biso   1.000  C
  H60      1.0000 0.39494  0.96403  0.15900  Biso   1.000  H
  H61      1.0000 0.46398  0.75100  0.28602  Biso   1.000  H
  C58      1.0000 0.17597  0.71999  0.16500  Biso   1.000  C
  C59      1.0000 0.30499  0.82898  0.22402  Biso   1.000  C
  C60      1.0000 0.28193  0.75100  0.16802  Biso   1.000  C
  C61      1.0000 0.15194  0.69202  0.24298  Biso   1.000  C
  C62      1.0000 0.11095  0.79803  0.13900  Biso   1.000  C
  C63      1.0000 0.22993  0.90003  0.19303  Biso   1.000  C
  C64      1.0000 0.27293  0.79600  0.29701  Biso   1.000  C
  O10      1.0000 0.34497  0.72901  0.12900  Biso   1.000  O
  H62      1.0000 0.12996  0.63101  0.24298  Biso   1.000  H
  H63      1.0000 0.09793  0.72901  0.26002  Biso   1.000  H
  N3       1.0000 0.25097  0.70499  0.29201  Biso   1.000  N
  N4       1.0000 0.12698  0.86997  0.19303  Biso   1.000  N
  H64      1.0000 0.03793  0.78201  0.13598  Biso   1.000  H
  H65      1.0000 0.12799  0.81799  0.09003  Biso   1.000  H
  H66      1.0000 0.24298  0.91401  0.14202  Biso   1.000  H
  H67      1.0000 0.23897  0.95202  0.22501  Biso   1.000  H
  H68      1.0000 0.21198  0.82701  0.30998  Biso   1.000  H
  H69      1.0000 0.32898  0.80502  0.33702  Biso   1.000  H
  C65      1.0000 0.24892  0.66101  0.36500  Biso   1.000  C
  C66      1.0000 0.05093  0.93499  0.18000  Biso   1.000  C
  H70      1.0000 0.11997  0.85002  0.24403  Biso   1.000  H
  H71      1.0000 0.23094  0.60000  0.35400  Biso   1.000  H
  H72      1.0000 0.31791  0.66400  0.39000  Biso   1.000  H
  C67      1.0000 0.17696  0.69202  0.42001  Biso   1.000  C
  H73      1.0000 0.98499  0.90798  0.16401  Biso   1.000  H
  C68      1.0000 0.04496  0.98201  0.25200  Biso   1.000  C
  H74      1.0000 0.06994  0.97502  0.14098  Biso   1.000  H
  H75      1.0000 0.17597  0.75602  0.42100  Biso   1.000  H
  H76      1.0000 0.19892  0.66997  0.47101  Biso   1.000  H
  O11      1.0000 0.09293  0.66603  0.39902  Biso   1.000  O
  O12      1.0000 0.96299  0.03699  0.24101  Biso   1.000  O
  H77      1.0000 0.03598  0.94102  0.29201  Biso   1.000  H
  H78      1.0000 0.10791  0.01602  0.26398  Biso   1.000  H
  C69      1.0000 0.01692  0.65898  0.45898  Biso   1.000  C
  C70      1.0000 0.94294  0.08700  0.30399  Biso   1.000  C
  H79      1.0000 0.95098  0.64099  0.43502  Biso   1.000  H
  H80      1.0000 0.04092  0.61500  0.49602  Biso   1.000  H
  C71      1.0000 0.00697  0.73397  0.49102  Biso   1.000  C
  C72      1.0000 0.88694  0.04900  0.35802  Biso   1.000  C
  H81      1.0000 0.90492  0.13797  0.28503  Biso   1.000  H
  H82      1.0000 0.00895  0.10601  0.32900  Biso   1.000  H
  H83      1.0000 0.97293  0.72399  0.53702  Biso   1.000  H
  O13      1.0000 0.94693  0.79803  0.44502  Biso   1.000  O
  H84      1.0000 0.07495  0.75799  0.50498  Biso   1.000  H
  O14      1.0000 0.93393  0.97699  0.39198  Biso   1.000  O
  H85      1.0000 0.81896  0.03203  0.33499  Biso   1.000  H
  H86      1.0000 0.87797  0.09202  0.39698  Biso   1.000  H
  C73      1.0000 0.93697  0.87201  0.48102  Biso   1.000  C
  C74      1.0000 0.87891  0.93899  0.44898  Biso   1.000  C
  H87      1.0000 0.90893  0.85802  0.52900  Biso   1.000  H
  H88      1.0000 0.00591  0.89501  0.49201  Biso   1.000  H
  H89      1.0000 0.81293  0.91598  0.42699  Biso   1.000  H
  H90      1.0000 0.86692  0.98201  0.48701  Biso   1.000  H
  C75      1.0000 0.70194  0.99898  0.58401  Biso   1.000  C
  C76      1.0000 0.65096  0.99199  0.51399  Biso   1.000  C
  H91      1.0000 0.73495  0.05402  0.60000  Biso   1.000  H
  C77      1.0000 0.70793  0.93003  0.63199  Biso   1.000  C
  O15      1.0000 0.64999  0.06400  0.47200  Biso   1.000  O
  C78      1.0000 0.60494  0.91503  0.49201  Biso   1.000  C
  C79      1.0000 0.66296  0.85300  0.61001  Biso   1.000  C
  H92      1.0000 0.74496  0.93499  0.68200  Biso   1.000  H
  C80      1.0000 0.61595  0.05701  0.39599  Biso   1.000  C
  C81      1.0000 0.61094  0.84601  0.53999  Biso   1.000  C
  H93      1.0000 0.56798  0.91001  0.44199  Biso   1.000  H
  C82      1.0000 0.67599  0.77998  0.66502  Biso   1.000  C
  C83      1.0000 0.63300  0.14102  0.35900  Biso   1.000  C
  H94      1.0000 0.54300  0.04303  0.38901  Biso   1.000  H
  H95      1.0000 0.65399  0.01201  0.37302  Biso   1.000  H
  H96      1.0000 0.57798  0.79098  0.52498  Biso   1.000  H
  C84      1.0000 0.78194  0.74903  0.66799  Biso   1.000  C
  C85      1.0000 0.65196  0.80801  0.74301  Biso   1.000  C
  C86      1.0000 0.61097  0.70200  0.63897  Biso   1.000  C
  C87      1.0000 0.61101  0.14801  0.28398  Biso   1.000  C
  C88      1.0000 0.67997  0.20801  0.39901  Biso   1.000  C
  C89      1.0000 0.80493  0.67099  0.72399  Biso   1.000  C
  O16      1.0000 0.84498  0.77102  0.62902  Biso   1.000  O
  H97      1.0000 0.62998  0.86902  0.74301  Biso   1.000  H
  H98      1.0000 0.59794  0.77102  0.75999  Biso   1.000  H
  N5       1.0000 0.75090  0.79498  0.79198  Biso   1.000  N
  N6       1.0000 0.62692  0.63000  0.69300  Biso   1.000  N
  H99      1.0000 0.53794  0.71802  0.63600  Biso   1.000  H
  H100     1.0000 0.62793  0.68198  0.59000  Biso   1.000  H
  C90      1.0000 0.63601  0.22199  0.24798  Biso   1.000  C
  H101     1.0000 0.57697  0.09997  0.25502  Biso   1.000  H
  C91      1.0000 0.70601  0.28198  0.36301  Biso   1.000  C
  H102     1.0000 0.69597  0.20299  0.45397  Biso   1.000  H
  C92      1.0000 0.91492  0.64500  0.72201  Biso   1.000  C
  C93      1.0000 0.72994  0.60000  0.69300  Biso   1.000  C
  C94      1.0000 0.77294  0.70397  0.79698  Biso   1.000  C
  C95      1.0000 0.74894  0.83902  0.86502  Biso   1.000  C
  C96      1.0000 0.55094  0.56498  0.67997  Biso   1.000  C
  H103     1.0000 0.61998  0.65002  0.74400  Biso   1.000  H
  C97      1.0000 0.68397  0.28897  0.28700  Biso   1.000  C
  H104     1.0000 0.62098  0.22701  0.19302  Biso   1.000  H
  H105     1.0000 0.73894  0.33003  0.39198  Biso   1.000  H
  C98      1.0000 0.94597  0.57401  0.68497  Biso   1.000  C
  C99      1.0000 0.98598  0.69800  0.75999  Biso   1.000  C
  H106     1.0000 0.74292  0.58602  0.64199  Biso   1.000  H
  H107     1.0000 0.73891  0.54801  0.72498  Biso   1.000  H
  H108     1.0000 0.71193  0.67302  0.81001  Biso   1.000  H
  H109     1.0000 0.82892  0.69501  0.83699  Biso   1.000  H
  H110     1.0000 0.73096  0.90003  0.85397  Biso   1.000  H
  H111     1.0000 0.81792  0.83597  0.88997  Biso   1.000  H
  C100     1.0000 0.67697  0.80801  0.91998  Biso   1.000  C
  C101     1.0000 0.54498  0.51802  0.75202  Biso   1.000  C
  H112     1.0000 0.56996  0.52501  0.64100  Biso   1.000  H
  H113     1.0000 0.48493  0.59199  0.66398  Biso   1.000  H
  C102     1.0000 0.71001  0.36797  0.25100  Biso   1.000  C
  H114     1.0000 0.89495  0.53600  0.65898  Biso   1.000  H
  C103     1.0000 0.04793  0.55500  0.68602  Biso   1.000  C
  H115     1.0000 0.96391  0.74903  0.78599  Biso   1.000  H
  C104     1.0000 0.08796  0.68001  0.75999  Biso   1.000  C
  H116     1.0000 0.67591  0.74401  0.92097  Biso   1.000  H
  H117     1.0000 0.69893  0.83000  0.97099  Biso   1.000  H
  O17      1.0000 0.59294  0.83400  0.89899  Biso   1.000  O
  O18      1.0000 0.46292  0.46298  0.74098  Biso   1.000  O
  H118     1.0000 0.60793  0.48402  0.76400  Biso   1.000  H
  H119     1.0000 0.53592  0.55901  0.79198  Biso   1.000  H
  H120     1.0000 0.64697  0.40197  0.24402  Biso   1.000  H
  H121     1.0000 0.73196  0.35297  0.20198  Biso   1.000  H
  O19      1.0000 0.78496  0.42097  0.28799  Biso   1.000  O
  C105     1.0000 0.11894  0.60801  0.72300  Biso   1.000  C
  H122     1.0000 0.06994  0.50397  0.65898  Biso   1.000  H
  H123     1.0000 0.13895  0.71802  0.78698  Biso   1.000  H
  C106     1.0000 0.51694  0.84099  0.95900  Biso   1.000  C
  C107     1.0000 0.44296  0.41303  0.80402  Biso   1.000  C
  C108     1.0000 0.88096  0.39199  0.27700  Biso   1.000  C
  O20      1.0000 0.21493  0.57903  0.71201  Biso   1.000  O
  H124     1.0000 0.54094  0.88497  0.99599  Biso   1.000  H
  H125     1.0000 0.45091  0.85898  0.93499  Biso   1.000  H
  C109     1.0000 0.50691  0.76600  0.99099  Biso   1.000  C
  C110     1.0000 0.38695  0.45097  0.85799  Biso   1.000  C
  H126     1.0000 0.50897  0.39403  0.82902  Biso   1.000  H
  H127     1.0000 0.40493  0.36200  0.78500  Biso   1.000  H
  C111     1.0000 0.95196  0.44500  0.31399  Biso   1.000  C
  C112     1.0000 0.91201  0.31999  0.24001  Biso   1.000  C
  C113     1.0000 0.28996  0.63203  0.74900  Biso   1.000  C
  O21      1.0000 0.44694  0.70200  0.94499  Biso   1.000  O
  H128     1.0000 0.47294  0.77598  0.03699  Biso   1.000  H
  H129     1.0000 0.57497  0.74198  0.00501  Biso   1.000  H
  O22      1.0000 0.43395  0.52297  0.89201  Biso   1.000  O
  H130     1.0000 0.31898  0.46800  0.83501  Biso   1.000  H
  H131     1.0000 0.37792  0.40801  0.89701  Biso   1.000  H
  H132     1.0000 0.92995  0.49603  0.34097  Biso   1.000  H
  C114     1.0000 0.05400  0.42599  0.31498  Biso   1.000  C
  H133     1.0000 0.86101  0.28198  0.21297  Biso   1.000  H
  C115     1.0000 0.01399  0.30200  0.24001  Biso   1.000  C
  C116     1.0000 0.31593  0.71103  0.71300  Biso   1.000  C
  H134     1.0000 0.35293  0.59803  0.75598  Biso   1.000  H
  H135     1.0000 0.26793  0.64703  0.79797  Biso   1.000  H
  C117     1.0000 0.43691  0.62803  0.98099  Biso   1.000  C
  C118     1.0000 0.37893  0.56098  0.94900  Biso   1.000  C
  C119     1.0000 0.08497  0.35500  0.27799  Biso   1.000  C
  H136     1.0000 0.10494  0.46400  0.34097  Biso   1.000  H
  H137     1.0000 0.03598  0.25097  0.21402  Biso   1.000  H
  C120     1.0000 0.29396  0.71802  0.63699  Biso   1.000  C
  C121     1.0000 0.36396  0.77801  0.75202  Biso   1.000  C
  H138     1.0000 0.50592  0.60502  0.99198  Biso   1.000  H
  H139     1.0000 0.40895  0.64201  0.02902  Biso   1.000  H
  H140     1.0000 0.31295  0.58398  0.92702  Biso   1.000  H
  H141     1.0000 0.36693  0.51802  0.98698  Biso   1.000  H
  C122     1.0000 0.19497  0.32901  0.27601  Biso   1.000  C
  C123     1.0000 0.31993  0.79199  0.60099  Biso   1.000  C
  H142     1.0000 0.26095  0.66997  0.60797  Biso   1.000  H
  C124     1.0000 0.38895  0.85199  0.71597  Biso   1.000  C
  H143     1.0000 0.37892  0.77299  0.80698  Biso   1.000  H
  C125     1.0000 0.21796  0.25097  0.33202  Biso   1.000  C
  C126     1.0000 0.26995  0.40000  0.30701  Biso   1.000  C
  C127     1.0000 0.22696  0.29603  0.20302  Biso   1.000  C
  C128     1.0000 0.36697  0.85898  0.64100  Biso   1.000  C
  H144     1.0000 0.30399  0.79701  0.54598  Biso   1.000  H
  H145     1.0000 0.42293  0.90003  0.74499  Biso   1.000  H
  O23      1.0000 0.15498  0.22898  0.37098  Biso   1.000  O
  C129     1.0000 0.32398  0.22002  0.33498  Biso   1.000  C
  N7       1.0000 0.37298  0.37000  0.30701  Biso   1.000  N
  H146     1.0000 0.25698  0.41398  0.35801  Biso   1.000  H
  H147     1.0000 0.26099  0.45199  0.27502  Biso   1.000  H
  N8       1.0000 0.24899  0.20502  0.20803  Biso   1.000  N
  H148     1.0000 0.28797  0.32698  0.19000  Biso   1.000  H
  H149     1.0000 0.17097  0.30499  0.16301  Biso   1.000  H
  C130     1.0000 0.38394  0.94299  0.60401  Biso   1.000  C
  C131     1.0000 0.33694  0.14700  0.39000  Biso   1.000  C
  C132     1.0000 0.34801  0.19199  0.25699  Biso   1.000  C
  C133     1.0000 0.38900  0.29800  0.36098  Biso   1.000  C
  C134     1.0000 0.44895  0.43502  0.31998  Biso   1.000  C
  H150     1.0000 0.37999  0.34998  0.25601  Biso   1.000  H
  C135     1.0000 0.25095  0.16098  0.13498  Biso   1.000  C
  O24      1.0000 0.34998  0.93600  0.52800  Biso   1.000  O
  H151     1.0000 0.45697  0.95697  0.61099  Biso   1.000  H
  H152     1.0000 0.34598  0.98799  0.62699  Biso   1.000  H
  C136     1.0000 0.38896  0.15399  0.46002  Biso   1.000  C
  C137     1.0000 0.29196  0.06997  0.36801  Biso   1.000  C
  H153     1.0000 0.36999  0.13098  0.25699  Biso   1.000  H
  H154     1.0000 0.40195  0.22898  0.24001  Biso   1.000  H
  H155     1.0000 0.46195  0.28198  0.36400  Biso   1.000  H
  H156     1.0000 0.37197  0.31802  0.41000  Biso   1.000  H
  C138     1.0000 0.45499  0.48198  0.24798  Biso   1.000  C
  H157     1.0000 0.43001  0.47499  0.35900  Biso   1.000  H
  H158     1.0000 0.51496  0.40801  0.33597  Biso   1.000  H
  H159     1.0000 0.26901  0.10003  0.14597  Biso   1.000  H
  H160     1.0000 0.18197  0.16403  0.10998  Biso   1.000  H
  C139     1.0000 0.32300  0.19199  0.08002  Biso   1.000  C
  C140     1.0000 0.34894  0.00801  0.48601  Biso   1.000  C
  C141     1.0000 0.39496  0.08497  0.50800  Biso   1.000  C
  H161     1.0000 0.42199  0.20902  0.47502  Biso   1.000  H
  C142     1.0000 0.29796  0.00102  0.41600  Biso   1.000  C
  H162     1.0000 0.25500  0.06501  0.31800  Biso   1.000  H
  O25      1.0000 0.53696  0.53702  0.25897  Biso   1.000  O
  H163     1.0000 0.39196  0.51598  0.23600  Biso   1.000  H
  H164     1.0000 0.46398  0.44099  0.20803  Biso   1.000  H
  H165     1.0000 0.32398  0.25599  0.07898  Biso   1.000  H
  H166     1.0000 0.30104  0.17000  0.02902  Biso   1.000  H
  O26      1.0000 0.40703  0.16600  0.10102  Biso   1.000  O
  H167     1.0000 0.43199  0.08999  0.55801  Biso   1.000  H
  H168     1.0000 0.26495  0.94598  0.40000  Biso   1.000  H
  C143     1.0000 0.55701  0.58697  0.19599  Biso   1.000  C
  C144     1.0000 0.48303  0.15901  0.04100  Biso   1.000  C
  C145     1.0000 0.61302  0.54903  0.14202  Biso   1.000  C
  H169     1.0000 0.49100  0.60597  0.17098  Biso   1.000  H
  H170     1.0000 0.59496  0.63800  0.21501  Biso   1.000  H
  H171     1.0000 0.45903  0.11503  0.00401  Biso   1.000  H
  H172     1.0000 0.54898  0.14102  0.06502  Biso   1.000  H
  C146     1.0000 0.49299  0.23400  0.00901  Biso   1.000  C
  O27      1.0000 0.56602  0.47703  0.10800  Biso   1.000  O
  H173     1.0000 0.68099  0.53200  0.16499  Biso   1.000  H
  H174     1.0000 0.62198  0.59199  0.10300  Biso   1.000  H
  H175     1.0000 0.52695  0.22402  0.96301  Biso   1.000  H
  H176     1.0000 0.42492  0.25802  0.99500  Biso   1.000  H
  O28      1.0000 0.55303  0.29800  0.05502  Biso   1.000  O
  C147     1.0000 0.62097  0.43902  0.05100  Biso   1.000  C
  C148     1.0000 0.56298  0.37197  0.01902  Biso   1.000  C
  H177     1.0000 0.68702  0.41602  0.07299  Biso   1.000  H
  H178     1.0000 0.63297  0.48198  0.01303  Biso   1.000  H
  H179     1.0000 0.59095  0.35799  0.97098  Biso   1.000  H
  H180     1.0000 0.49398  0.39498  0.00802  Biso   1.000  H
