data_image0
_cell_length_a       10.072
_cell_length_b       13.735
_cell_length_c       17.338
_cell_angle_alpha    75.98
_cell_angle_beta     79.8
_cell_angle_gamma    68.86

_symmetry_space_group_name_H-M    "P 1"
_symmetry_int_tables_number       1

loop_
  _symmetry_equiv_pos_as_xyz
  'x, y, z'

loop_
  _atom_site_label
  _atom_site_occupancy
  _atom_site_fract_x
  _atom_site_fract_y
  _atom_site_fract_z
  _atom_site_thermal_displace_type
  _atom_site_B_iso_or_equiv
  _atom_site_type_symbol
  C1       1.0000 0.35262  0.70575  0.66457  Biso   1.000  C
  C2       1.0000 0.48605  0.73447  0.62478  Biso   1.000  C
  H1       1.0000 0.27002  0.74487  0.63500  Biso   1.000  H
  H2       1.0000 0.36506  0.63009  0.66768  Biso   1.000  H
  H3       1.0000 0.31505  0.72636  0.71583  Biso   1.000  H
  C3       1.0000 0.62004  0.66657  0.66576  Biso   1.000  C
  H4       1.0000 0.49904  0.72188  0.57089  Biso   1.000  H
  C4       1.0000 0.45863  0.85307  0.61654  Biso   1.000  C
  C5       1.0000 0.75552  0.65621  0.62496  Biso   1.000  C
  C6       1.0000 0.61386  0.61378  0.74516  Biso   1.000  C
  C7       1.0000 0.36941  0.92678  0.56068  Biso   1.000  C
  C8       1.0000 0.51917  0.89348  0.66218  Biso   1.000  C
  O1       1.0000 0.76512  0.70534  0.54616  Biso   1.000  O
  C9       1.0000 0.87842  0.59631  0.66337  Biso   1.000  C
  C10      1.0000 0.73409  0.55141  0.78555  Biso   1.000  C
  H5       1.0000 0.52312  0.61818  0.77581  Biso   1.000  H
  O2       1.0000 0.31255  0.88954  0.51157  Biso   1.000  O
  C11      1.0000 0.34163  0.03529  0.55100  Biso   1.000  C
  H6       1.0000 0.58314  0.84373  0.70000  Biso   1.000  H
  C12      1.0000 0.49731  0.00167  0.65346  Biso   1.000  C
  H7       1.0000 0.86608  0.68605  0.52388  Biso   1.000  H
  C13      1.0000 0.86777  0.54366  0.74253  Biso   1.000  C
  H8       1.0000 0.97603  0.59308  0.63303  Biso   1.000  H
  C14      1.0000 0.72273  0.49217  0.87146  Biso   1.000  C
  H9       1.0000 0.28004  0.93206  0.47698  Biso   1.000  H
  H10      1.0000 0.28305  0.08468  0.50978  Biso   1.000  H
  C15      1.0000 0.40766  0.07194  0.59611  Biso   1.000  C
  C16      1.0000 0.56614  0.04390  0.70382  Biso   1.000  C
  O3       1.0000 0.98809  0.48203  0.77945  Biso   1.000  O
  C17      1.0000 0.76644  0.53897  0.93042  Biso   1.000  C
  H11      1.0000 0.79508  0.41729  0.87187  Biso   1.000  H
  C18      1.0000 0.57285  0.48259  0.89852  Biso   1.000  C
  O4       1.0000 0.39113  0.17828  0.58362  Biso   1.000  O
  C19      1.0000 0.69674  0.95870  0.73984  Biso   1.000  C
  H12      1.0000 0.60306  0.09808  0.66821  Biso   1.000  H
  C20      1.0000 0.45346  0.09861  0.76565  Biso   1.000  C
  H13      1.0000 0.05810  0.47408  0.74928  Biso   1.000  H
  C21      1.0000 0.77233  0.64228  0.91280  Biso   1.000  C
  C22      1.0000 0.80336  0.47883  0.00534  Biso   1.000  C
  H14      1.0000 0.54206  0.45215  0.86202  Biso   1.000  H
  H15      1.0000 0.50010  0.54970  0.90252  Biso   1.000  H
  H16      1.0000 0.57208  0.44113  0.95557  Biso   1.000  H
  H17      1.0000 0.34905  0.21211  0.53648  Biso   1.000  H
  C23      1.0000 0.82078  0.91866  0.69068  Biso   1.000  C
  C24      1.0000 0.70202  0.91849  0.82157  Biso   1.000  C
  H18      1.0000 0.37612  0.16107  0.73817  Biso   1.000  H
  H19      1.0000 0.40413  0.05112  0.80347  Biso   1.000  H
  H20      1.0000 0.48810  0.13033  0.79660  Biso   1.000  H
  H21      1.0000 0.74706  0.68642  0.85837  Biso   1.000  H
  C25      1.0000 0.81348  0.68612  0.96537  Biso   1.000  C
  O5       1.0000 0.80666  0.37462  0.03007  Biso   1.000  O
  C26      1.0000 0.84444  0.51935  0.05988  Biso   1.000  C
  O6       1.0000 0.82501  0.95463  0.60931  Biso   1.000  O
  C27      1.0000 0.94277  0.84308  0.72150  Biso   1.000  C
  C28      1.0000 0.82273  0.84270  0.85533  Biso   1.000  C
  H22      1.0000 0.61916  0.94585  0.85580  Biso   1.000  H
  C29      1.0000 0.82325  0.79819  0.94464  Biso   1.000  C
  C30      1.0000 0.85125  0.62151  0.03915  Biso   1.000  C
  H23      1.0000 0.79011  0.35713  0.99632  Biso   1.000  H
  H24      1.0000 0.87689  0.47620  0.11198  Biso   1.000  H
  C31      1.0000 0.94425  0.80514  0.80293  Biso   1.000  C
  H25      1.0000 0.03104  0.81105  0.68781  Biso   1.000  H
  H26      1.0000 0.91715  0.79326  0.96280  Biso   1.000  H
  C32      1.0000 0.70853  0.87163  0.99536  Biso   1.000  C
  O7       1.0000 0.89876  0.66173  0.09005  Biso   1.000  O
  O8       1.0000 0.06898  0.72909  0.82653  Biso   1.000  O
  H27      1.0000 0.71414  0.94506  0.98550  Biso   1.000  H
  H28      1.0000 0.61807  0.87809  0.98789  Biso   1.000  H
  H29      1.0000 0.72790  0.84353  0.05176  Biso   1.000  H
  H30      1.0000 0.94089  0.60824  0.13325  Biso   1.000  H
  H31      1.0000 0.07204  0.72010  0.87301  Biso   1.000  H
  C33      1.0000 0.64760  0.29427  0.33539  Biso   1.000  C
  C34      1.0000 0.51402  0.26561  0.37524  Biso   1.000  C
  H32      1.0000 0.73005  0.25522  0.36502  Biso   1.000  H
  H33      1.0000 0.63502  0.37001  0.33228  Biso   1.000  H
  H34      1.0000 0.68502  0.27372  0.28419  Biso   1.000  H
  C35      1.0000 0.38004  0.33353  0.33420  Biso   1.000  C
  H35      1.0000 0.50103  0.27820  0.42913  Biso   1.000  H
  C36      1.0000 0.54155  0.14703  0.38342  Biso   1.000  C
  C37      1.0000 0.38622  0.38632  0.25480  Biso   1.000  C
  C38      1.0000 0.24455  0.34387  0.37506  Biso   1.000  C
  C39      1.0000 0.63077  0.07332  0.43928  Biso   1.000  C
  C40      1.0000 0.48100  0.10660  0.33784  Biso   1.000  C
  C41      1.0000 0.26600  0.44869  0.21441  Biso   1.000  C
  H36      1.0000 0.47705  0.38191  0.22421  Biso   1.000  H
  C42      1.0000 0.12175  0.40377  0.33665  Biso   1.000  C
  O9       1.0000 0.23507  0.29476  0.45380  Biso   1.000  O
  O10      1.0000 0.68763  0.11056  0.48839  Biso   1.000  O
  C43      1.0000 0.65845  0.96481  0.44896  Biso   1.000  C
  H37      1.0000 0.41703  0.15636  0.30002  Biso   1.000  H
  C44      1.0000 0.50286  0.99842  0.34656  Biso   1.000  C
  C45      1.0000 0.27745  0.50792  0.12850  Biso   1.000  C
  C46      1.0000 0.13230  0.45643  0.25749  Biso   1.000  C
  H38      1.0000 0.02404  0.40700  0.36699  Biso   1.000  H
  H39      1.0000 0.13400  0.31405  0.47608  Biso   1.000  H
  H40      1.0000 0.72004  0.06804  0.52298  Biso   1.000  H
  H41      1.0000 0.71703  0.91542  0.49018  Biso   1.000  H
  C47      1.0000 0.59251  0.92815  0.40392  Biso   1.000  C
  C48      1.0000 0.43395  0.95620  0.29614  Biso   1.000  C
  C49      1.0000 0.23364  0.46112  0.06960  Biso   1.000  C
  H42      1.0000 0.20500  0.58281  0.12809  Biso   1.000  H
  C50      1.0000 0.42723  0.51751  0.10144  Biso   1.000  C
  O11      1.0000 0.01208  0.51805  0.22057  Biso   1.000  O
  O12      1.0000 0.60905  0.82181  0.41634  Biso   1.000  O
  C51      1.0000 0.30344  0.04140  0.26012  Biso   1.000  C
  H43      1.0000 0.39701  0.90201  0.33181  Biso   1.000  H
  C52      1.0000 0.54662  0.90149  0.23431  Biso   1.000  C
  C53      1.0000 0.22784  0.35781  0.08722  Biso   1.000  C
  C54      1.0000 0.19671  0.52126  0.99468  Biso   1.000  C
  H44      1.0000 0.45801  0.54793  0.13800  Biso   1.000  H
  H45      1.0000 0.50007  0.45038  0.09750  Biso   1.000  H
  H46      1.0000 0.42810  0.55897  0.04439  Biso   1.000  H
  H47      1.0000 0.94209  0.52602  0.25068  Biso   1.000  H
  H48      1.0000 0.65103  0.78799  0.46348  Biso   1.000  H
  C55      1.0000 0.29819  0.08151  0.17845  Biso   1.000  C
  C56      1.0000 0.17930  0.08143  0.30934  Biso   1.000  C
  H49      1.0000 0.62407  0.83903  0.26179  Biso   1.000  H
  H50      1.0000 0.59605  0.94898  0.19649  Biso   1.000  H
  H51      1.0000 0.51208  0.86975  0.20342  Biso   1.000  H
  H52      1.0000 0.25302  0.31368  0.14159  Biso   1.000  H
  C57      1.0000 0.18669  0.31396  0.03465  Biso   1.000  C
  O13      1.0000 0.19342  0.62548  0.96989  Biso   1.000  O
  C58      1.0000 0.15563  0.48073  0.94014  Biso   1.000  C
  C59      1.0000 0.17744  0.15738  0.14470  Biso   1.000  C
  H53      1.0000 0.38101  0.05423  0.14422  Biso   1.000  H
  C60      1.0000 0.05730  0.15701  0.27852  Biso   1.000  C
  O14      1.0000 0.17516  0.04546  0.39071  Biso   1.000  O
  C61      1.0000 0.17682  0.20189  0.05538  Biso   1.000  C
  C62      1.0000 0.14886  0.37849  0.96087  Biso   1.000  C
  H54      1.0000 0.21006  0.64296  0.00370  Biso   1.000  H
  H55      1.0000 0.12318  0.52388  0.88804  Biso   1.000  H
  C63      1.0000 0.05592  0.19495  0.19709  Biso   1.000  C
  H56      1.0000 0.96903  0.18903  0.31221  Biso   1.000  H
  H57      1.0000 0.08302  0.20683  0.03722  Biso   1.000  H
  C64      1.0000 0.29164  0.12845  0.00466  Biso   1.000  C
  O15      1.0000 0.10142  0.33837  0.90991  Biso   1.000  O
  O16      1.0000 0.93109  0.27100  0.17349  Biso   1.000  O
  H58      1.0000 0.28603  0.05502  0.01452  Biso   1.000  H
  H59      1.0000 0.38200  0.12199  0.01213  Biso   1.000  H
  H60      1.0000 0.27218  0.15655  0.94826  Biso   1.000  H
  H61      1.0000 0.05919  0.39186  0.86672  Biso   1.000  H
  H62      1.0000 0.92803  0.27999  0.12701  Biso   1.000  H
