data_image0
_cell_length_a       15.657
_cell_length_b       44.298
_cell_length_c       18.431
_cell_angle_alpha    90
_cell_angle_beta     91.85
_cell_angle_gamma    90

_symmetry_space_group_name_H-M    "P 1"
_symmetry_int_tables_number       1

loop_
  _symmetry_equiv_pos_as_xyz
  'x, y, z'

loop_
  _atom_site_label
  _atom_site_occupancy
  _atom_site_fract_x
  _atom_site_fract_y
  _atom_site_fract_z
  _atom_site_thermal_displace_type
  _atom_site_B_iso_or_equiv
  _atom_site_type_symbol
  C1       1.0000 0.45660  0.56490  0.59149  Biso   1.000  C
  C2       1.0000 0.47945  0.59651  0.61809  Biso   1.000  C
  H1       1.0000 0.50295  0.55691  0.56261  Biso   1.000  H
  H2       1.0000 0.40379  0.56569  0.56152  Biso   1.000  H
  H3       1.0000 0.44816  0.55161  0.63329  Biso   1.000  H
  C3       1.0000 0.56380  0.59540  0.66450  Biso   1.000  C
  C4       1.0000 0.40938  0.60919  0.66330  Biso   1.000  C
  C5       1.0000 0.49346  0.61619  0.55300  Biso   1.000  C
  C6       1.0000 0.60910  0.57091  0.67682  Biso   1.000  C
  C7       1.0000 0.59489  0.62339  0.69441  Biso   1.000  C
  H4       1.0000 0.40579  0.59750  0.70831  Biso   1.000  H
  H5       1.0000 0.35475  0.60800  0.63589  Biso   1.000  H
  H6       1.0000 0.42210  0.63030  0.67519  Biso   1.000  H
  H7       1.0000 0.49801  0.63730  0.56852  Biso   1.000  H
  H8       1.0000 0.44519  0.61400  0.51831  Biso   1.000  H
  H9       1.0000 0.54636  0.61021  0.52998  Biso   1.000  H
  C8       1.0000 0.65926  0.54811  0.68741  Biso   1.000  C
  C9       1.0000 0.62056  0.64721  0.71792  Biso   1.000  C
  C10      1.0000 0.73066  0.54070  0.63350  Biso   1.000  C
  C11      1.0000 0.65197  0.52840  0.74940  Biso   1.000  C
  C12      1.0000 0.65496  0.67450  0.74739  Biso   1.000  C
  C13      1.0000 0.71289  0.51000  0.60109  Biso   1.000  C
  C14      1.0000 0.81680  0.54041  0.67508  Biso   1.000  C
  C15      1.0000 0.73109  0.56610  0.57249  Biso   1.000  C
  C16      1.0000 0.64899  0.51300  0.80211  Biso   1.000  C
  C17      1.0000 0.60206  0.69931  0.76042  Biso   1.000  C
  C18      1.0000 0.74336  0.67759  0.76102  Biso   1.000  C
  H10      1.0000 0.72981  0.49440  0.63633  Biso   1.000  H
  H11      1.0000 0.74557  0.50761  0.55702  Biso   1.000  H
  H12      1.0000 0.65181  0.50819  0.58877  Biso   1.000  H
  H13      1.0000 0.82971  0.56070  0.69360  Biso   1.000  H
  H14      1.0000 0.86168  0.53400  0.64262  Biso   1.000  H
  H15      1.0000 0.81427  0.52630  0.71591  Biso   1.000  H
  H16      1.0000 0.67525  0.56671  0.54697  Biso   1.000  H
  H17      1.0000 0.77550  0.56161  0.53791  Biso   1.000  H
  H18      1.0000 0.74287  0.58581  0.59512  Biso   1.000  H
  C19      1.0000 0.64414  0.49460  0.86948  Biso   1.000  C
  O1       1.0000 0.51756  0.69640  0.73849  Biso   1.000  O
  C20      1.0000 0.63466  0.72579  0.78968  Biso   1.000  C
  O2       1.0000 0.79469  0.65380  0.74191  Biso   1.000  O
  C21      1.0000 0.77855  0.70371  0.79120  Biso   1.000  C
  O3       1.0000 0.62599  0.51379  0.92957  Biso   1.000  O
  C22      1.0000 0.57254  0.47250  0.87100  Biso   1.000  C
  C23      1.0000 0.72897  0.48120  0.88989  Biso   1.000  C
  C24      1.0000 0.45628  0.68990  0.79158  Biso   1.000  C
  C25      1.0000 0.72255  0.72759  0.80510  Biso   1.000  C
  C26      1.0000 0.57403  0.75130  0.80781  Biso   1.000  C
  C27      1.0000 0.82069  0.63281  0.79750  Biso   1.000  C
  C28      1.0000 0.87298  0.70421  0.81042  Biso   1.000  C
  H19      1.0000 0.57488  0.51131  0.94108  Biso   1.000  H
  H20      1.0000 0.51803  0.48329  0.87192  Biso   1.000  H
  H21      1.0000 0.57905  0.45980  0.91448  Biso   1.000  H
  H22      1.0000 0.57345  0.45970  0.82762  Biso   1.000  H
  H23      1.0000 0.74729  0.46781  0.85102  Biso   1.000  H
  H24      1.0000 0.72449  0.46959  0.93489  Biso   1.000  H
  H25      1.0000 0.77115  0.49740  0.89727  Biso   1.000  H
  O4       1.0000 0.42093  0.71570  0.82279  Biso   1.000  O
  H26      1.0000 0.40955  0.67780  0.76873  Biso   1.000  H
  H27      1.0000 0.48369  0.67750  0.83050  Biso   1.000  H
  H28      1.0000 0.74518  0.74561  0.82578  Biso   1.000  H
  C29      1.0000 0.61100  0.78311  0.80227  Biso   1.000  C
  C30      1.0000 0.53459  0.74439  0.88072  Biso   1.000  C
  H29      1.0000 0.52606  0.75019  0.77068  Biso   1.000  H
  O5       1.0000 0.89947  0.64109  0.83180  Biso   1.000  O
  H30      1.0000 0.77617  0.63170  0.83430  Biso   1.000  H
  H31      1.0000 0.82638  0.61251  0.77578  Biso   1.000  H
  C31      1.0000 0.88458  0.69030  0.88560  Biso   1.000  C
  H32      1.0000 0.90116  0.69039  0.77567  Biso   1.000  H
  C32      1.0000 0.91840  0.73471  0.80559  Biso   1.000  C
  C33      1.0000 0.46338  0.72640  0.88582  Biso   1.000  C
  H33      1.0000 0.64287  0.78491  0.75700  Biso   1.000  H
  H34      1.0000 0.65147  0.78681  0.84380  Biso   1.000  H
  C34      1.0000 0.53947  0.80699  0.80249  Biso   1.000  C
  C35      1.0000 0.57289  0.75480  0.94569  Biso   1.000  C
  C36      1.0000 0.89485  0.65951  0.89190  Biso   1.000  C
  C37      1.0000 0.88257  0.70739  0.94863  Biso   1.000  C
  H35      1.0000 0.89986  0.74789  0.84559  Biso   1.000  H
  H36      1.0000 0.90137  0.74459  0.75917  Biso   1.000  H
  C38      1.0000 0.01642  0.73150  0.81020  Biso   1.000  C
  C39      1.0000 0.43003  0.71879  0.95129  Biso   1.000  C
  H37      1.0000 0.50347  0.80439  0.75781  Biso   1.000  H
  H38      1.0000 0.50305  0.80279  0.84418  Biso   1.000  H
  C40      1.0000 0.56619  0.83801  0.80651  Biso   1.000  C
  H39      1.0000 0.62277  0.76690  0.94401  Biso   1.000  H
  C41      1.0000 0.53929  0.74771  0.01295  Biso   1.000  C
  C42      1.0000 0.90506  0.64570  0.96062  Biso   1.000  C
  H40      1.0000 0.87359  0.72850  0.94417  Biso   1.000  H
  C43      1.0000 0.89301  0.69511  0.01816  Biso   1.000  C
  H41      1.0000 0.03196  0.71879  0.85270  Biso   1.000  H
  H42      1.0000 0.03475  0.72071  0.76639  Biso   1.000  H
  C44      1.0000 0.06487  0.75970  0.81628  Biso   1.000  C
  C45      1.0000 0.35686  0.69870  0.95530  Biso   1.000  C
  C46      1.0000 0.46998  0.72949  0.01426  Biso   1.000  C
  C47      1.0000 0.49425  0.85970  0.78561  Biso   1.000  C
  H43      1.0000 0.61419  0.84110  0.77377  Biso   1.000  H
  H44      1.0000 0.58694  0.84250  0.85661  Biso   1.000  H
  C48      1.0000 0.58450  0.75771  0.08477  Biso   1.000  C
  C49      1.0000 0.91476  0.61350  0.96692  Biso   1.000  C
  C50      1.0000 0.90402  0.66389  0.02229  Biso   1.000  C
  C51      1.0000 0.88563  0.71430  0.08618  Biso   1.000  C
  H45      1.0000 0.05352  0.76900  0.86389  Biso   1.000  H
  H46      1.0000 0.04305  0.77380  0.77823  Biso   1.000  H
  C52      1.0000 0.16125  0.75681  0.80949  Biso   1.000  C
  C53      1.0000 0.30084  0.68050  0.96019  Biso   1.000  C
  O6       1.0000 0.43438  0.72159  0.08086  Biso   1.000  O
  H47      1.0000 0.47364  0.85471  0.73572  Biso   1.000  H
  H48      1.0000 0.44637  0.85600  0.81829  Biso   1.000  H
  C54      1.0000 0.51368  0.89130  0.78778  Biso   1.000  C
  H49      1.0000 0.54040  0.75821  0.12277  Biso   1.000  H
  C55      1.0000 0.64973  0.73401  0.10735  Biso   1.000  C
  C56      1.0000 0.62379  0.78970  0.08010  Biso   1.000  C
  C57      1.0000 0.92394  0.58741  0.97332  Biso   1.000  C
  O7       1.0000 0.91819  0.65001  0.08917  Biso   1.000  O
  C58      1.0000 0.79323  0.71270  0.10866  Biso   1.000  C
  C59      1.0000 0.91912  0.74599  0.07999  Biso   1.000  C
  H50      1.0000 0.92084  0.70421  0.12538  Biso   1.000  H
  H51      1.0000 0.18402  0.74369  0.84912  Biso   1.000  H
  H52      1.0000 0.17315  0.74681  0.76292  Biso   1.000  H
  C60      1.0000 0.20716  0.78640  0.81259  Biso   1.000  C
  C61      1.0000 0.23703  0.65791  0.96339  Biso   1.000  C
  C62      1.0000 0.47559  0.69660  0.11637  Biso   1.000  C
  H53      1.0000 0.56237  0.89539  0.75629  Biso   1.000  H
  H54      1.0000 0.53099  0.89711  0.83810  Biso   1.000  H
  C63      1.0000 0.43898  0.90979  0.76319  Biso   1.000  C
  C64      1.0000 0.62113  0.70841  0.14459  Biso   1.000  C
  C65      1.0000 0.73438  0.73500  0.08949  Biso   1.000  C
  H55      1.0000 0.65832  0.79390  0.12489  Biso   1.000  H
  H56      1.0000 0.66219  0.79060  0.03847  Biso   1.000  H
  C66      1.0000 0.55490  0.81349  0.07077  Biso   1.000  C
  C67      1.0000 0.93367  0.55429  0.97902  Biso   1.000  C
  C68      1.0000 0.84303  0.64240  0.12646  Biso   1.000  C
  C69      1.0000 0.76392  0.68780  0.14736  Biso   1.000  C
  H57      1.0000 0.90665  0.75719  0.12500  Biso   1.000  H
  H58      1.0000 0.88825  0.75620  0.03917  Biso   1.000  H
  C70      1.0000 0.01559  0.74771  0.06745  Biso   1.000  C
  H59      1.0000 0.18379  0.79911  0.77242  Biso   1.000  H
  H60      1.0000 0.19236  0.79649  0.85840  Biso   1.000  H
  C71      1.0000 0.30057  0.78681  0.80841  Biso   1.000  C
  C72      1.0000 0.22786  0.63899  0.90699  Biso   1.000  C
  C73      1.0000 0.18318  0.65529  0.03027  Biso   1.000  C
  O8       1.0000 0.53803  0.70619  0.16799  Biso   1.000  O
  H61      1.0000 0.43219  0.68430  0.14079  Biso   1.000  H
  H62      1.0000 0.50268  0.68371  0.07978  Biso   1.000  H
  H63      1.0000 0.45439  0.93131  0.76541  Biso   1.000  H
  H64      1.0000 0.42239  0.90440  0.71319  Biso   1.000  H
  H65      1.0000 0.39107  0.90600  0.79489  Biso   1.000  H
  C74      1.0000 0.67782  0.68540  0.16587  Biso   1.000  C
  H66      1.0000 0.75348  0.75191  0.06268  Biso   1.000  H
  H67      1.0000 0.52180  0.81451  0.11566  Biso   1.000  H
  H68      1.0000 0.51524  0.80751  0.03049  Biso   1.000  H
  C75      1.0000 0.59103  0.84460  0.05497  Biso   1.000  C
  C76      1.0000 0.97655  0.53741  0.91899  Biso   1.000  C
  C77      1.0000 0.90515  0.54169  0.03858  Biso   1.000  C
  O9       1.0000 0.82001  0.66610  0.17456  Biso   1.000  O
  H69      1.0000 0.85290  0.62350  0.15447  Biso   1.000  H
  H70      1.0000 0.79549  0.63870  0.09080  Biso   1.000  H
  H71      1.0000 0.04681  0.73830  0.10920  Biso   1.000  H
  H72      1.0000 0.02861  0.73599  0.02348  Biso   1.000  H
  C78      1.0000 0.04789  0.77999  0.05850  Biso   1.000  C
  H73      1.0000 0.32117  0.80760  0.81112  Biso   1.000  H
  H74      1.0000 0.32574  0.77509  0.84890  Biso   1.000  H
  H75      1.0000 0.31709  0.77771  0.76237  Biso   1.000  H
  C79      1.0000 0.22053  0.62091  0.85010  Biso   1.000  C
  C80      1.0000 0.12767  0.68351  0.03358  Biso   1.000  C
  C81      1.0000 0.12748  0.62791  0.02848  Biso   1.000  C
  C82      1.0000 0.24439  0.65360  0.09661  Biso   1.000  C
  C83      1.0000 0.65032  0.65989  0.20686  Biso   1.000  C
  H76      1.0000 0.63768  0.84891  0.09096  Biso   1.000  H
  H77      1.0000 0.61652  0.84410  0.00649  Biso   1.000  H
  C84      1.0000 0.52810  0.87020  0.05616  Biso   1.000  C
  C85      1.0000 0.93018  0.54470  0.84679  Biso   1.000  C
  C86      1.0000 0.97346  0.50429  0.93191  Biso   1.000  C
  C87      1.0000 0.07062  0.54820  0.91882  Biso   1.000  C
  C88      1.0000 0.87809  0.52950  0.09796  Biso   1.000  C
  H78      1.0000 0.01251  0.78999  0.01996  Biso   1.000  H
  H79      1.0000 0.03941  0.79110  0.10426  Biso   1.000  H
  C89      1.0000 0.13863  0.78261  0.03955  Biso   1.000  C
  C90      1.0000 0.16333  0.62680  0.78360  Biso   1.000  C
  C91      1.0000 0.27685  0.59420  0.85140  Biso   1.000  C
  H80      1.0000 0.09282  0.68529  0.98858  Biso   1.000  H
  H81      1.0000 0.16429  0.70141  0.03917  Biso   1.000  H
  H82      1.0000 0.09022  0.68211  0.07500  Biso   1.000  H
  H83      1.0000 0.09136  0.62800  0.98402  Biso   1.000  H
  H84      1.0000 0.09128  0.62791  0.07087  Biso   1.000  H
  H85      1.0000 0.16328  0.60980  0.02940  Biso   1.000  H
  H86      1.0000 0.28290  0.63630  0.09139  Biso   1.000  H
  H87      1.0000 0.21151  0.65109  0.14047  Biso   1.000  H
  H88      1.0000 0.27787  0.67220  0.10019  Biso   1.000  H
  C92      1.0000 0.62538  0.63861  0.23970  Biso   1.000  C
  H89      1.0000 0.50513  0.87189  0.10545  Biso   1.000  H
  H90      1.0000 0.55803  0.88941  0.04558  Biso   1.000  H
  C93      1.0000 0.46019  0.86629  0.00546  Biso   1.000  C
  H91      1.0000 0.86939  0.53989  0.85042  Biso   1.000  H
  H92      1.0000 0.95458  0.53251  0.80808  Biso   1.000  H
  H93      1.0000 0.93698  0.56610  0.83571  Biso   1.000  H
  H94      1.0000 0.91387  0.49781  0.93348  Biso   1.000  H
  H95      1.0000 0.00306  0.49959  0.97810  Biso   1.000  H
  H96      1.0000 0.00153  0.49379  0.89239  Biso   1.000  H
  H97      1.0000 0.07227  0.57009  0.91182  Biso   1.000  H
  H98      1.0000 0.09996  0.53820  0.87920  Biso   1.000  H
  H99      1.0000 0.09927  0.54300  0.96518  Biso   1.000  H
  C94      1.0000 0.93884  0.52519  0.16376  Biso   1.000  C
  C95      1.0000 0.79059  0.52079  0.10459  Biso   1.000  C
  H100     1.0000 0.14775  0.76940  0.99710  Biso   1.000  H
  H101     1.0000 0.13997  0.77209  0.99232  Biso   1.000  H
  H102     1.0000 0.14877  0.80360  0.02408  Biso   1.000  H
  C96      1.0000 0.20287  0.77500  0.09471  Biso   1.000  C
  H103     1.0000 0.16743  0.76859  0.07457  Biso   1.000  H
  C97      1.0000 0.20049  0.80600  0.03195  Biso   1.000  C
  C98      1.0000 0.10973  0.65380  0.79500  Biso   1.000  C
  C99      1.0000 0.08725  0.60310  0.77671  Biso   1.000  C
  C100     1.0000 0.21238  0.63179  0.71971  Biso   1.000  C
  C101     1.0000 0.32904  0.57520  0.85688  Biso   1.000  C
  C102     1.0000 0.60210  0.61269  0.28248  Biso   1.000  C
  H104     1.0000 0.48397  0.86291  0.95709  Biso   1.000  H
  C103     1.0000 0.39363  0.89489  0.00020  Biso   1.000  C
  H105     1.0000 0.42799  0.84789  0.01860  Biso   1.000  H
  C104     1.0000 0.90721  0.54411  0.22559  Biso   1.000  C
  C105     1.0000 0.93554  0.49160  0.18618  Biso   1.000  C
  C106     1.0000 0.02980  0.53341  0.14720  Biso   1.000  C
  C107     1.0000 0.71733  0.51379  0.11126  Biso   1.000  C
  H106     1.0000 0.19660  0.75351  0.10779  Biso   1.000  H
  H107     1.0000 0.19247  0.78719  0.13857  Biso   1.000  H
  C108     1.0000 0.29183  0.78031  0.07256  Biso   1.000  C
  H108     1.0000 0.17854  0.81920  0.99232  Biso   1.000  H
  C109     1.0000 0.29103  0.80051  0.01800  Biso   1.000  C
  H109     1.0000 0.19920  0.81810  0.07706  Biso   1.000  H
  H110     1.0000 0.06304  0.64861  0.82681  Biso   1.000  H
  H111     1.0000 0.08604  0.66080  0.74810  Biso   1.000  H
  H112     1.0000 0.14475  0.66980  0.81747  Biso   1.000  H
  H113     1.0000 0.11053  0.58260  0.77410  Biso   1.000  H
  H114     1.0000 0.05268  0.60730  0.73257  Biso   1.000  H
  H115     1.0000 0.05137  0.60479  0.81910  Biso   1.000  H
  H116     1.0000 0.25504  0.64750  0.72970  Biso   1.000  H
  H117     1.0000 0.17406  0.63820  0.67948  Biso   1.000  H
  H118     1.0000 0.24126  0.61301  0.70652  Biso   1.000  H
  C110     1.0000 0.39638  0.55100  0.85900  Biso   1.000  C
  C111     1.0000 0.66921  0.59860  0.33410  Biso   1.000  C
  C112     1.0000 0.52248  0.60380  0.27629  Biso   1.000  C
  H119     1.0000 0.35163  0.89139  0.96041  Biso   1.000  H
  H120     1.0000 0.42548  0.91349  0.99102  Biso   1.000  H
  H121     1.0000 0.36401  0.89679  0.04596  Biso   1.000  H
  H122     1.0000 0.90518  0.56531  0.21087  Biso   1.000  H
  H123     1.0000 0.94612  0.54169  0.26798  Biso   1.000  H
  H124     1.0000 0.84981  0.53741  0.23785  Biso   1.000  H
  H125     1.0000 0.87684  0.48609  0.19768  Biso   1.000  H
  H126     1.0000 0.97319  0.48831  0.22890  Biso   1.000  H
  H127     1.0000 0.95439  0.47901  0.14600  Biso   1.000  H
  H128     1.0000 0.04923  0.52090  0.10708  Biso   1.000  H
  H129     1.0000 0.06669  0.52991  0.19030  Biso   1.000  H
  H130     1.0000 0.03247  0.55470  0.13336  Biso   1.000  H
  C113     1.0000 0.62962  0.50700  0.12255  Biso   1.000  C
  H131     1.0000 0.30671  0.76550  0.03559  Biso   1.000  H
  H132     1.0000 0.33080  0.77809  0.11495  Biso   1.000  H
  H133     1.0000 0.29683  0.80069  0.05280  Biso   1.000  H
  H134     1.0000 0.30533  0.77961  0.03119  Biso   1.000  H
  H135     1.0000 0.30096  0.80381  0.96670  Biso   1.000  H
  H136     1.0000 0.32620  0.81439  0.04759  Biso   1.000  H
  O10      1.0000 0.36895  0.52720  0.90867  Biso   1.000  O
  C114     1.0000 0.47858  0.56989  0.85911  Biso   1.000  C
  C115     1.0000 0.39154  0.53090  0.79212  Biso   1.000  C
  C116     1.0000 0.69341  0.62199  0.39289  Biso   1.000  C
  C117     1.0000 0.63072  0.57091  0.36998  Biso   1.000  C
  C118     1.0000 0.74510  0.59000  0.29257  Biso   1.000  C
  C119     1.0000 0.43971  0.59811  0.27146  Biso   1.000  C
  O11      1.0000 0.57072  0.52201  0.07180  Biso   1.000  O
  C120     1.0000 0.61072  0.47469  0.09916  Biso   1.000  C
  C121     1.0000 0.60328  0.51149  0.19768  Biso   1.000  C
  H137     1.0000 0.40643  0.51370  0.91160  Biso   1.000  H
  H138     1.0000 0.48605  0.58021  0.90590  Biso   1.000  H
  H139     1.0000 0.47454  0.58479  0.82002  Biso   1.000  H
  H140     1.0000 0.52767  0.55659  0.85162  Biso   1.000  H
  H141     1.0000 0.41708  0.51120  0.80379  Biso   1.000  H
  H142     1.0000 0.42294  0.54041  0.75298  Biso   1.000  H
  H143     1.0000 0.33173  0.52820  0.77638  Biso   1.000  H
  H144     1.0000 0.71099  0.64091  0.36977  Biso   1.000  H
  H145     1.0000 0.74082  0.61420  0.42356  Biso   1.000  H
  H146     1.0000 0.64397  0.62590  0.42286  Biso   1.000  H
  H147     1.0000 0.67519  0.56050  0.39908  Biso   1.000  H
  H148     1.0000 0.60752  0.55729  0.33258  Biso   1.000  H
  H149     1.0000 0.58478  0.57729  0.40158  Biso   1.000  H
  H150     1.0000 0.76869  0.60800  0.26956  Biso   1.000  H
  H151     1.0000 0.72822  0.57531  0.25506  Biso   1.000  H
  H152     1.0000 0.78838  0.58111  0.32558  Biso   1.000  H
  C122     1.0000 0.37686  0.61511  0.32020  Biso   1.000  C
  C123     1.0000 0.40659  0.57691  0.22010  Biso   1.000  C
  H153     1.0000 0.58590  0.51889  0.02918  Biso   1.000  H
  H154     1.0000 0.54924  0.47090  0.10149  Biso   1.000  H
  H155     1.0000 0.64178  0.46070  0.13156  Biso   1.000  H
  H156     1.0000 0.62894  0.47180  0.04927  Biso   1.000  H
  H157     1.0000 0.60721  0.53300  0.21017  Biso   1.000  H
  H158     1.0000 0.64088  0.49980  0.23080  Biso   1.000  H
  H159     1.0000 0.54419  0.50461  0.20230  Biso   1.000  H
  C124     1.0000 0.33256  0.59199  0.36797  Biso   1.000  C
  C125     1.0000 0.42567  0.63770  0.36759  Biso   1.000  C
  C126     1.0000 0.31031  0.63091  0.27146  Biso   1.000  C
  C127     1.0000 0.37751  0.55951  0.17418  Biso   1.000  C
  H160     1.0000 0.29761  0.57849  0.33736  Biso   1.000  H
  H161     1.0000 0.29598  0.60260  0.40190  Biso   1.000  H
  H162     1.0000 0.37569  0.58030  0.39528  Biso   1.000  H
  H163     1.0000 0.47050  0.62721  0.39609  Biso   1.000  H
  H164     1.0000 0.38630  0.64759  0.40038  Biso   1.000  H
  H165     1.0000 0.45177  0.65301  0.33676  Biso   1.000  H
  H166     1.0000 0.33837  0.64610  0.24176  Biso   1.000  H
  H167     1.0000 0.26809  0.64080  0.30169  Biso   1.000  H
  H168     1.0000 0.28158  0.61601  0.23986  Biso   1.000  H
  C128     1.0000 0.34289  0.53980  0.11707  Biso   1.000  C
  O12      1.0000 0.40410  0.53860  0.05877  Biso   1.000  O
  C129     1.0000 0.26623  0.55330  0.08130  Biso   1.000  C
  C130     1.0000 0.33229  0.50831  0.14557  Biso   1.000  C
  H169     1.0000 0.44369  0.52659  0.07039  Biso   1.000  H
  H170     1.0000 0.28209  0.57190  0.05649  Biso   1.000  H
  H171     1.0000 0.22387  0.55790  0.11778  Biso   1.000  H
  H172     1.0000 0.24163  0.53901  0.04579  Biso   1.000  H
  H173     1.0000 0.32129  0.49449  0.10486  Biso   1.000  H
  H174     1.0000 0.28409  0.50770  0.17820  Biso   1.000  H
  H175     1.0000 0.38459  0.50210  0.17217  Biso   1.000  H
